# generated using pymatgen
data_Mo
_symmetry_space_group_name_H-M   'P 1'
_cell_length_a   7.27808089
_cell_length_b   7.27808089
_cell_length_c   3.63904047
_cell_angle_alpha   90.00000000
_cell_angle_beta   90.00000000
_cell_angle_gamma   90.00000000
_symmetry_Int_Tables_number   1
_chemical_formula_structural   Mo
_chemical_formula_sum   Mo16
_cell_volume   192.76165285
_cell_formula_units_Z   16
loop_
 _symmetry_equiv_pos_site_id
 _symmetry_equiv_pos_as_xyz
  1  'x, y, z'
loop_
 _atom_site_type_symbol
 _atom_site_label
 _atom_site_symmetry_multiplicity
 _atom_site_fract_x
 _atom_site_fract_y
 _atom_site_fract_z
 _atom_site_occupancy
  Mo  Mo0  1  -0.01492990  7.27698000  0.00145821  1
  Mo  Mo1  1  1.81415000  1.81895000  0.00425099  1
  Mo  Mo2  1  1.83672000  7.27417000  1.83522000  1
  Mo  Mo3  1  7.27501000  1.82324000  1.82576000  1
  Mo  Mo4  1  3.62747000  7.27151000  3.63428000  1
  Mo  Mo5  1  5.47146000  1.82231000  0.00233071  1
  Mo  Mo6  1  5.45651000  0.00012748  1.82326000  1
  Mo  Mo7  1  3.64282000  1.82272000  1.82077000  1
  Mo  Mo8  1  7.28412000  3.62846000  3.65262000  1
  Mo  Mo9  1  1.81382000  5.45224000  3.63072000  1
  Mo  Mo10  1  1.81552000  3.64485000  1.81105000  1
  Mo  Mo11  1  7.28229000  5.46768000  1.82005000  1
  Mo  Mo12  1  3.65672000  3.63406000  -0.00951235  1
  Mo  Mo13  1  5.45759000  5.45843000  3.63933000  1
  Mo  Mo14  1  5.45084000  3.64618000  1.81538000  1
  Mo  Mo15  1  3.63197000  5.46018000  1.80505000  1
