# generated using pymatgen
data_Mo
_symmetry_space_group_name_H-M   'P 1'
_cell_length_a   7.27808089
_cell_length_b   7.27808089
_cell_length_c   3.63904047
_cell_angle_alpha   90.00000000
_cell_angle_beta   90.00000000
_cell_angle_gamma   90.00000000
_symmetry_Int_Tables_number   1
_chemical_formula_structural   Mo
_chemical_formula_sum   Mo16
_cell_volume   192.76165285
_cell_formula_units_Z   16
loop_
 _symmetry_equiv_pos_site_id
 _symmetry_equiv_pos_as_xyz
  1  'x, y, z'
loop_
 _atom_site_type_symbol
 _atom_site_label
 _atom_site_symmetry_multiplicity
 _atom_site_fract_x
 _atom_site_fract_y
 _atom_site_fract_z
 _atom_site_occupancy
  Mo  Mo0  1  0.00483615  7.27380000  -0.01140560  1
  Mo  Mo1  1  1.82983000  1.81712000  -0.00060549  1
  Mo  Mo2  1  1.82313000  7.28224000  1.82048000  1
  Mo  Mo3  1  7.27700000  1.82978000  1.81116000  1
  Mo  Mo4  1  3.63386000  7.27793000  3.64142000  1
  Mo  Mo5  1  5.44785000  1.80900000  -0.00218689  1
  Mo  Mo6  1  5.47617000  -0.00498966  1.82255000  1
  Mo  Mo7  1  3.63684000  1.82090000  1.82382000  1
  Mo  Mo8  1  7.29091000  3.64148000  3.64302000  1
  Mo  Mo9  1  1.81500000  5.45926000  3.63774000  1
  Mo  Mo10  1  1.81170000  3.64352000  1.82740000  1
  Mo  Mo11  1  7.27255000  5.46547000  1.81950000  1
  Mo  Mo12  1  3.64205000  3.63881000  -0.00056862  1
  Mo  Mo13  1  5.44921000  5.44830000  3.64228000  1
  Mo  Mo14  1  5.45429000  3.62918000  1.81670000  1
  Mo  Mo15  1  3.63686000  5.47029000  1.82069000  1
