# generated using pymatgen
data_Mo
_symmetry_space_group_name_H-M   'P 1'
_cell_length_a   7.28235037
_cell_length_b   7.28235037
_cell_length_c   3.64117527
_cell_angle_alpha   90.00000000
_cell_angle_beta   90.00000000
_cell_angle_gamma   90.00000000
_symmetry_Int_Tables_number   1
_chemical_formula_structural   Mo
_chemical_formula_sum   Mo16
_cell_volume   193.10108955
_cell_formula_units_Z   16
loop_
 _symmetry_equiv_pos_site_id
 _symmetry_equiv_pos_as_xyz
  1  'x, y, z'
loop_
 _atom_site_type_symbol
 _atom_site_label
 _atom_site_symmetry_multiplicity
 _atom_site_fract_x
 _atom_site_fract_y
 _atom_site_fract_z
 _atom_site_occupancy
  Mo  Mo0  1  7.25066000  0.02739620  3.71027000  1
  Mo  Mo1  1  1.82684000  1.91834000  -0.01563590  1
  Mo  Mo2  1  1.79895000  0.06271640  1.94474000  1
  Mo  Mo3  1  -0.00989905  1.78145000  1.74614000  1
  Mo  Mo4  1  3.62455000  7.26746000  0.03443160  1
  Mo  Mo5  1  5.48417000  1.73105000  -0.10212900  1
  Mo  Mo6  1  5.46027000  0.01593440  1.77548000  1
  Mo  Mo7  1  3.66959000  1.82441000  1.82145000  1
  Mo  Mo8  1  -0.03984170  3.63103000  3.60181000  1
  Mo  Mo9  1  1.80753000  5.42960000  3.66274000  1
  Mo  Mo10  1  1.84494000  3.66753000  1.74945000  1
  Mo  Mo11  1  7.23305000  5.44932000  1.85822000  1
  Mo  Mo12  1  3.71176000  3.54358000  0.04884420  1
  Mo  Mo13  1  5.43299000  5.48714000  3.64872000  1
  Mo  Mo14  1  5.52434000  3.65364000  1.81982000  1
  Mo  Mo15  1  3.60409000  5.45105000  1.80766000  1
