# generated using pymatgen
data_Mo
_symmetry_space_group_name_H-M   'P 1'
_cell_length_a   7.28500180
_cell_length_b   7.28500180
_cell_length_c   3.64250088
_cell_angle_alpha   90.00000000
_cell_angle_beta   90.00000000
_cell_angle_gamma   90.00000000
_symmetry_Int_Tables_number   1
_chemical_formula_structural   Mo
_chemical_formula_sum   Mo16
_cell_volume   193.31207935
_cell_formula_units_Z   16
loop_
 _symmetry_equiv_pos_site_id
 _symmetry_equiv_pos_as_xyz
  1  'x, y, z'
loop_
 _atom_site_type_symbol
 _atom_site_label
 _atom_site_symmetry_multiplicity
 _atom_site_fract_x
 _atom_site_fract_y
 _atom_site_fract_z
 _atom_site_occupancy
  Mo  Mo0  1  7.30938000  -0.03666310  0.01535660  1
  Mo  Mo1  1  1.83056000  1.88096000  3.67426000  1
  Mo  Mo2  1  1.85474000  0.02520510  1.85310000  1
  Mo  Mo3  1  0.02297050  1.85017000  1.74569000  1
  Mo  Mo4  1  3.62834000  7.34210000  0.04529270  1
  Mo  Mo5  1  5.41141000  1.76545000  3.67593000  1
  Mo  Mo6  1  5.45738000  -0.08166110  1.81234000  1
  Mo  Mo7  1  3.65680000  1.76829000  1.82573000  1
  Mo  Mo8  1  -0.04357590  3.70400000  3.61799000  1
  Mo  Mo9  1  1.80620000  5.39911000  3.60913000  1
  Mo  Mo10  1  1.85018000  3.60453000  1.85146000  1
  Mo  Mo11  1  0.09857780  5.50526000  1.85259000  1
  Mo  Mo12  1  3.53934000  3.66817000  0.00925873  1
  Mo  Mo13  1  5.46928000  5.43686000  -0.08663820  1
  Mo  Mo14  1  5.40609000  3.64389000  1.79442000  1
  Mo  Mo15  1  3.64132000  5.46335000  1.81609000  1
