# generated using pymatgen
data_Mo
_symmetry_space_group_name_H-M   'P 1'
_cell_length_a   7.28500180
_cell_length_b   7.28500180
_cell_length_c   3.64250088
_cell_angle_alpha   90.00000000
_cell_angle_beta   90.00000000
_cell_angle_gamma   90.00000000
_symmetry_Int_Tables_number   1
_chemical_formula_structural   Mo
_chemical_formula_sum   Mo16
_cell_volume   193.31207935
_cell_formula_units_Z   16
loop_
 _symmetry_equiv_pos_site_id
 _symmetry_equiv_pos_as_xyz
  1  'x, y, z'
loop_
 _atom_site_type_symbol
 _atom_site_label
 _atom_site_symmetry_multiplicity
 _atom_site_fract_x
 _atom_site_fract_y
 _atom_site_fract_z
 _atom_site_occupancy
  Mo  Mo0  1  7.20474000  -0.02722640  0.00995269  1
  Mo  Mo1  1  1.84212000  1.71450000  3.58887000  1
  Mo  Mo2  1  1.83657000  0.01718470  1.86722000  1
  Mo  Mo3  1  0.06073380  1.73237000  1.78312000  1
  Mo  Mo4  1  3.64354000  7.22006000  -0.01943770  1
  Mo  Mo5  1  5.44354000  1.94579000  3.60935000  1
  Mo  Mo6  1  5.38527000  -0.01447480  1.80868000  1
  Mo  Mo7  1  3.62376000  1.91475000  1.82926000  1
  Mo  Mo8  1  0.04161580  3.63676000  3.66714000  1
  Mo  Mo9  1  1.86435000  5.46392000  3.70354000  1
  Mo  Mo10  1  1.80529000  3.60273000  1.84179000  1
  Mo  Mo11  1  0.09613720  5.53792000  1.69924000  1
  Mo  Mo12  1  3.52405000  3.62055000  0.00186013  1
  Mo  Mo13  1  5.48621000  5.38254000  0.07398410  1
  Mo  Mo14  1  5.47648000  3.67907000  1.84809000  1
  Mo  Mo15  1  3.60458000  5.51254000  1.79935000  1
