# generated using pymatgen
data_Mo
_symmetry_space_group_name_H-M   'P 1'
_cell_length_a   7.28500180
_cell_length_b   7.28500180
_cell_length_c   3.64250088
_cell_angle_alpha   90.00000000
_cell_angle_beta   90.00000000
_cell_angle_gamma   90.00000000
_symmetry_Int_Tables_number   1
_chemical_formula_structural   Mo
_chemical_formula_sum   Mo16
_cell_volume   193.31207935
_cell_formula_units_Z   16
loop_
 _symmetry_equiv_pos_site_id
 _symmetry_equiv_pos_as_xyz
  1  'x, y, z'
loop_
 _atom_site_type_symbol
 _atom_site_label
 _atom_site_symmetry_multiplicity
 _atom_site_fract_x
 _atom_site_fract_y
 _atom_site_fract_z
 _atom_site_occupancy
  Mo  Mo0  1  7.35054000  -0.00661721  -0.06026820  1
  Mo  Mo1  1  1.73617000  1.84050000  3.53487000  1
  Mo  Mo2  1  1.82825000  -0.03453710  1.79693000  1
  Mo  Mo3  1  0.00006785  1.85978000  1.80841000  1
  Mo  Mo4  1  3.62377000  7.36210000  0.04562450  1
  Mo  Mo5  1  5.43765000  1.78729000  3.61807000  1
  Mo  Mo6  1  5.54616000  0.01242360  1.93954000  1
  Mo  Mo7  1  3.67910000  1.79221000  1.82883000  1
  Mo  Mo8  1  -0.07299100  3.72759000  3.61620000  1
  Mo  Mo9  1  1.85345000  5.38476000  3.62903000  1
  Mo  Mo10  1  1.84124000  3.68842000  1.76331000  1
  Mo  Mo11  1  -0.03889620  5.43571000  1.82225000  1
  Mo  Mo12  1  3.69425000  3.60400000  0.07436680  1
  Mo  Mo13  1  5.36558000  5.47879000  0.07326360  1
  Mo  Mo14  1  5.43628000  3.53924000  1.84648000  1
  Mo  Mo15  1  3.65837000  5.46734000  1.77507000  1
