# generated using pymatgen
data_Mo
_symmetry_space_group_name_H-M   'P 1'
_cell_length_a   7.28500180
_cell_length_b   7.28500180
_cell_length_c   3.64250088
_cell_angle_alpha   90.00000000
_cell_angle_beta   90.00000000
_cell_angle_gamma   90.00000000
_symmetry_Int_Tables_number   1
_chemical_formula_structural   Mo
_chemical_formula_sum   Mo16
_cell_volume   193.31207935
_cell_formula_units_Z   16
loop_
 _symmetry_equiv_pos_site_id
 _symmetry_equiv_pos_as_xyz
  1  'x, y, z'
loop_
 _atom_site_type_symbol
 _atom_site_label
 _atom_site_symmetry_multiplicity
 _atom_site_fract_x
 _atom_site_fract_y
 _atom_site_fract_z
 _atom_site_occupancy
  Mo  Mo0  1  7.22217000  0.05742640  -0.02740370  1
  Mo  Mo1  1  1.81085000  1.79938000  3.67018000  1
  Mo  Mo2  1  1.94940000  0.01269790  1.78099000  1
  Mo  Mo3  1  -0.01046240  1.81285000  1.78082000  1
  Mo  Mo4  1  3.64063000  7.16807000  -0.02005350  1
  Mo  Mo5  1  5.39701000  1.85390000  3.63659000  1
  Mo  Mo6  1  5.38879000  -0.00761406  1.81481000  1
  Mo  Mo7  1  3.59755000  1.85237000  1.83219000  1
  Mo  Mo8  1  0.02985000  3.53802000  3.59879000  1
  Mo  Mo9  1  1.81474000  5.59147000  3.65274000  1
  Mo  Mo10  1  1.82777000  3.62407000  1.77540000  1
  Mo  Mo11  1  0.06322350  5.59437000  1.89724000  1
  Mo  Mo12  1  3.62282000  3.68542000  0.02435250  1
  Mo  Mo13  1  5.50911000  5.39124000  -0.02882690  1
  Mo  Mo14  1  5.50417000  3.66178000  1.83719000  1
  Mo  Mo15  1  3.57139000  5.30354000  1.88699000  1
