# generated using pymatgen
data_Mo
_symmetry_space_group_name_H-M   'P 1'
_cell_length_a   7.28500180
_cell_length_b   7.28500180
_cell_length_c   3.64250088
_cell_angle_alpha   90.00000000
_cell_angle_beta   90.00000000
_cell_angle_gamma   90.00000000
_symmetry_Int_Tables_number   1
_chemical_formula_structural   Mo
_chemical_formula_sum   Mo16
_cell_volume   193.31207935
_cell_formula_units_Z   16
loop_
 _symmetry_equiv_pos_site_id
 _symmetry_equiv_pos_as_xyz
  1  'x, y, z'
loop_
 _atom_site_type_symbol
 _atom_site_label
 _atom_site_symmetry_multiplicity
 _atom_site_fract_x
 _atom_site_fract_y
 _atom_site_fract_z
 _atom_site_occupancy
  Mo  Mo0  1  7.16393000  -0.01785740  -0.02186610  1
  Mo  Mo1  1  1.90570000  1.82639000  3.59918000  1
  Mo  Mo2  1  1.82505000  0.00701949  1.76240000  1
  Mo  Mo3  1  -0.06059640  1.85808000  1.78713000  1
  Mo  Mo4  1  3.68021000  7.23505000  -0.03004020  1
  Mo  Mo5  1  5.44737000  1.78182000  3.69934000  1
  Mo  Mo6  1  5.31810000  0.03435820  1.83982000  1
  Mo  Mo7  1  3.66887000  1.82745000  1.83934000  1
  Mo  Mo8  1  0.02323740  3.59299000  3.61468000  1
  Mo  Mo9  1  1.87929000  5.53150000  3.62691000  1
  Mo  Mo10  1  1.82907000  3.63311000  1.70177000  1
  Mo  Mo11  1  0.02317530  5.50878000  1.86177000  1
  Mo  Mo12  1  3.66580000  3.63093000  -0.02080110  1
  Mo  Mo13  1  5.43520000  5.37802000  0.11655500  1
  Mo  Mo14  1  5.52002000  3.70946000  1.81250000  1
  Mo  Mo15  1  3.61458000  5.40189000  1.92332000  1
