# generated using pymatgen
data_Mo
_symmetry_space_group_name_H-M   'P 1'
_cell_length_a   7.28500180
_cell_length_b   7.28500180
_cell_length_c   3.64250088
_cell_angle_alpha   90.00000000
_cell_angle_beta   90.00000000
_cell_angle_gamma   90.00000000
_symmetry_Int_Tables_number   1
_chemical_formula_structural   Mo
_chemical_formula_sum   Mo16
_cell_volume   193.31207935
_cell_formula_units_Z   16
loop_
 _symmetry_equiv_pos_site_id
 _symmetry_equiv_pos_as_xyz
  1  'x, y, z'
loop_
 _atom_site_type_symbol
 _atom_site_label
 _atom_site_symmetry_multiplicity
 _atom_site_fract_x
 _atom_site_fract_y
 _atom_site_fract_z
 _atom_site_occupancy
  Mo  Mo0  1  7.28916000  0.04753110  -0.02638250  1
  Mo  Mo1  1  1.80130000  1.81612000  3.66022000  1
  Mo  Mo2  1  1.78266000  -0.04453870  1.82971000  1
  Mo  Mo3  1  -0.01656770  1.80160000  1.90391000  1
  Mo  Mo4  1  3.67655000  7.23277000  -0.06073080  1
  Mo  Mo5  1  5.50071000  1.87428000  3.59800000  1
  Mo  Mo6  1  5.50099000  -0.01824790  1.84903000  1
  Mo  Mo7  1  3.57474000  1.80883000  1.80134000  1
  Mo  Mo8  1  -0.08212180  3.62426000  3.69543000  1
  Mo  Mo9  1  1.86240000  5.40063000  3.67401000  1
  Mo  Mo10  1  1.80389000  3.64132000  1.89099000  1
  Mo  Mo11  1  -0.06209240  5.41318000  1.77567000  1
  Mo  Mo12  1  3.66294000  3.67800000  -0.03749110  1
  Mo  Mo13  1  5.48771000  5.49407000  -0.03141830  1
  Mo  Mo14  1  5.46684000  3.59751000  1.84208000  1
  Mo  Mo15  1  3.68989000  5.57169000  1.74763000  1
