# generated using pymatgen
data_Mo
_symmetry_space_group_name_H-M   'P 1'
_cell_length_a   7.28500180
_cell_length_b   7.28500180
_cell_length_c   3.64250088
_cell_angle_alpha   90.00000000
_cell_angle_beta   90.00000000
_cell_angle_gamma   90.00000000
_symmetry_Int_Tables_number   1
_chemical_formula_structural   Mo
_chemical_formula_sum   Mo16
_cell_volume   193.31207935
_cell_formula_units_Z   16
loop_
 _symmetry_equiv_pos_site_id
 _symmetry_equiv_pos_as_xyz
  1  'x, y, z'
loop_
 _atom_site_type_symbol
 _atom_site_label
 _atom_site_symmetry_multiplicity
 _atom_site_fract_x
 _atom_site_fract_y
 _atom_site_fract_z
 _atom_site_occupancy
  Mo  Mo0  1  7.28358000  0.12621800  -0.03075310  1
  Mo  Mo1  1  1.87943000  1.77918000  3.57300000  1
  Mo  Mo2  1  1.82474000  0.04663790  1.80891000  1
  Mo  Mo3  1  0.03428980  1.75056000  1.75981000  1
  Mo  Mo4  1  3.65882000  7.21041000  0.04341890  1
  Mo  Mo5  1  5.42652000  1.85530000  3.62710000  1
  Mo  Mo6  1  5.36209000  -0.07106740  1.86571000  1
  Mo  Mo7  1  3.60583000  1.84904000  1.85006000  1
  Mo  Mo8  1  0.09531350  3.66164000  3.61569000  1
  Mo  Mo9  1  1.80125000  5.46309000  3.65035000  1
  Mo  Mo10  1  1.73229000  3.62972000  1.84623000  1
  Mo  Mo11  1  0.00720289  5.52178000  1.72819000  1
  Mo  Mo12  1  3.55962000  3.66499000  0.05870820  1
  Mo  Mo13  1  5.46704000  5.39803000  0.08698270  1
  Mo  Mo14  1  5.54758000  3.62342000  1.82871000  1
  Mo  Mo15  1  3.65339000  5.43006000  1.79987000  1
