# generated using pymatgen
data_Mo
_symmetry_space_group_name_H-M   'P 1'
_cell_length_a   7.28500180
_cell_length_b   7.28500180
_cell_length_c   3.64250088
_cell_angle_alpha   90.00000000
_cell_angle_beta   90.00000000
_cell_angle_gamma   90.00000000
_symmetry_Int_Tables_number   1
_chemical_formula_structural   Mo
_chemical_formula_sum   Mo16
_cell_volume   193.31207935
_cell_formula_units_Z   16
loop_
 _symmetry_equiv_pos_site_id
 _symmetry_equiv_pos_as_xyz
  1  'x, y, z'
loop_
 _atom_site_type_symbol
 _atom_site_label
 _atom_site_symmetry_multiplicity
 _atom_site_fract_x
 _atom_site_fract_y
 _atom_site_fract_z
 _atom_site_occupancy
  Mo  Mo0  1  7.26886000  0.02979340  -0.02763490  1
  Mo  Mo1  1  1.77509000  1.72000000  3.63788000  1
  Mo  Mo2  1  1.73968000  -0.05034050  1.77787000  1
  Mo  Mo3  1  0.10957200  1.88001000  1.84989000  1
  Mo  Mo4  1  3.56253000  7.17836000  -0.02274380  1
  Mo  Mo5  1  5.52754000  1.81215000  3.71389000  1
  Mo  Mo6  1  5.47619000  0.07538040  1.82552000  1
  Mo  Mo7  1  3.56810000  1.83171000  1.81882000  1
  Mo  Mo8  1  -0.03579780  3.63534000  3.57974000  1
  Mo  Mo9  1  1.81109000  5.51240000  3.66843000  1
  Mo  Mo10  1  1.85346000  3.69234000  1.76810000  1
  Mo  Mo11  1  -0.02282030  5.34355000  1.80603000  1
  Mo  Mo12  1  3.61431000  3.65310000  0.03434910  1
  Mo  Mo13  1  5.56512000  5.46647000  0.01548630  1
  Mo  Mo14  1  5.41376000  3.60857000  1.82986000  1
  Mo  Mo15  1  3.71231000  5.55015000  1.83651000  1
