# generated using pymatgen
data_Mo
_symmetry_space_group_name_H-M   'P 1'
_cell_length_a   7.27806742
_cell_length_b   7.27806742
_cell_length_c   3.63903379
_cell_angle_alpha   90.00000000
_cell_angle_beta   90.00000000
_cell_angle_gamma   90.00000000
_symmetry_Int_Tables_number   1
_chemical_formula_structural   Mo
_chemical_formula_sum   Mo16
_cell_volume   192.76058556
_cell_formula_units_Z   16
loop_
 _symmetry_equiv_pos_site_id
 _symmetry_equiv_pos_as_xyz
  1  'x, y, z'
loop_
 _atom_site_type_symbol
 _atom_site_label
 _atom_site_symmetry_multiplicity
 _atom_site_fract_x
 _atom_site_fract_y
 _atom_site_fract_z
 _atom_site_occupancy
  Mo  Mo0  1  0.00673105  7.27843000  3.61616000  1
  Mo  Mo1  1  1.80596000  1.81747000  -0.00581581  1
  Mo  Mo2  1  1.81950000  7.27120000  1.80536000  1
  Mo  Mo3  1  7.25253000  1.84116000  1.81966000  1
  Mo  Mo4  1  3.63227000  7.27152000  -0.02416530  1
  Mo  Mo5  1  5.49943000  1.81693000  -0.01011990  1
  Mo  Mo6  1  5.42668000  0.00003861  1.84030000  1
  Mo  Mo7  1  3.64633000  1.81495000  1.79234000  1
  Mo  Mo8  1  7.29013000  3.63899000  3.65458000  1
  Mo  Mo9  1  1.81869000  5.47142000  3.67827000  1
  Mo  Mo10  1  1.82260000  3.62919000  1.83785000  1
  Mo  Mo11  1  0.00966846  5.45963000  1.85452000  1
  Mo  Mo12  1  3.62197000  3.63100000  3.64247000  1
  Mo  Mo13  1  5.47162000  5.46438000  3.61114000  1
  Mo  Mo14  1  5.44460000  3.63225000  1.82831000  1
  Mo  Mo15  1  3.65531000  5.46351000  1.81018000  1
