# generated using pymatgen
data_Mo
_symmetry_space_group_name_H-M   'P 1'
_cell_length_a   7.28500180
_cell_length_b   7.28500180
_cell_length_c   3.64250088
_cell_angle_alpha   90.00000000
_cell_angle_beta   90.00000000
_cell_angle_gamma   90.00000000
_symmetry_Int_Tables_number   1
_chemical_formula_structural   Mo
_chemical_formula_sum   Mo16
_cell_volume   193.31207935
_cell_formula_units_Z   16
loop_
 _symmetry_equiv_pos_site_id
 _symmetry_equiv_pos_as_xyz
  1  'x, y, z'
loop_
 _atom_site_type_symbol
 _atom_site_label
 _atom_site_symmetry_multiplicity
 _atom_site_fract_x
 _atom_site_fract_y
 _atom_site_fract_z
 _atom_site_occupancy
  Mo  Mo0  1  7.30857000  -0.07775520  0.00999177  1
  Mo  Mo1  1  1.86501000  1.81758000  3.78708000  1
  Mo  Mo2  1  1.85815000  -0.04513820  1.84057000  1
  Mo  Mo3  1  -0.00974028  1.77034000  1.87359000  1
  Mo  Mo4  1  3.69510000  7.31799000  -0.09443720  1
  Mo  Mo5  1  5.51627000  1.80788000  3.67044000  1
  Mo  Mo6  1  5.39413000  0.09898240  1.71153000  1
  Mo  Mo7  1  3.66414000  1.83347000  1.81976000  1
  Mo  Mo8  1  -0.01764580  3.60493000  3.67480000  1
  Mo  Mo9  1  1.81094000  5.49485000  3.65905000  1
  Mo  Mo10  1  1.67203000  3.64216000  1.84164000  1
  Mo  Mo11  1  0.06993020  5.48084000  1.82861000  1
  Mo  Mo12  1  3.57997000  3.62283000  -0.07368390  1
  Mo  Mo13  1  5.46416000  5.42778000  -0.06900500  1
  Mo  Mo14  1  5.50483000  3.70603000  1.78726000  1
  Mo  Mo15  1  3.56315000  5.43622000  1.84480000  1
