# generated using pymatgen
data_Mo
_symmetry_space_group_name_H-M   'P 1'
_cell_length_a   7.28500180
_cell_length_b   7.28500180
_cell_length_c   3.64250088
_cell_angle_alpha   90.00000000
_cell_angle_beta   90.00000000
_cell_angle_gamma   90.00000000
_symmetry_Int_Tables_number   1
_chemical_formula_structural   Mo
_chemical_formula_sum   Mo16
_cell_volume   193.31207935
_cell_formula_units_Z   16
loop_
 _symmetry_equiv_pos_site_id
 _symmetry_equiv_pos_as_xyz
  1  'x, y, z'
loop_
 _atom_site_type_symbol
 _atom_site_label
 _atom_site_symmetry_multiplicity
 _atom_site_fract_x
 _atom_site_fract_y
 _atom_site_fract_z
 _atom_site_occupancy
  Mo  Mo0  1  7.19613000  0.00145796  -0.07027230  1
  Mo  Mo1  1  1.82875000  1.73938000  3.70219000  1
  Mo  Mo2  1  1.72084000  -0.05271050  1.79256000  1
  Mo  Mo3  1  0.06730110  1.87293000  1.84557000  1
  Mo  Mo4  1  3.64661000  7.23605000  0.03186870  1
  Mo  Mo5  1  5.44448000  1.81318000  3.62208000  1
  Mo  Mo6  1  5.43622000  0.12312100  1.78775000  1
  Mo  Mo7  1  3.65452000  1.86934000  1.83501000  1
  Mo  Mo8  1  0.01719710  3.59881000  3.62070000  1
  Mo  Mo9  1  1.79123000  5.43530000  3.69100000  1
  Mo  Mo10  1  1.92962000  3.65653000  1.81301000  1
  Mo  Mo11  1  -0.06381750  5.32276000  1.80380000  1
  Mo  Mo12  1  3.63790000  3.62490000  0.01114140  1
  Mo  Mo13  1  5.54561000  5.53236000  0.02590370  1
  Mo  Mo14  1  5.32838000  3.60906000  1.78402000  1
  Mo  Mo15  1  3.75801000  5.55653000  1.81567000  1
