# generated using pymatgen
data_Mo
_symmetry_space_group_name_H-M   'P 1'
_cell_length_a   7.28500180
_cell_length_b   7.28500180
_cell_length_c   3.64250088
_cell_angle_alpha   90.00000000
_cell_angle_beta   90.00000000
_cell_angle_gamma   90.00000000
_symmetry_Int_Tables_number   1
_chemical_formula_structural   Mo
_chemical_formula_sum   Mo16
_cell_volume   193.31207935
_cell_formula_units_Z   16
loop_
 _symmetry_equiv_pos_site_id
 _symmetry_equiv_pos_as_xyz
  1  'x, y, z'
loop_
 _atom_site_type_symbol
 _atom_site_label
 _atom_site_symmetry_multiplicity
 _atom_site_fract_x
 _atom_site_fract_y
 _atom_site_fract_z
 _atom_site_occupancy
  Mo  Mo0  1  7.42070000  -0.02741690  -0.03529480  1
  Mo  Mo1  1  1.81806000  1.87412000  3.66188000  1
  Mo  Mo2  1  1.77593000  -0.06237460  1.77769000  1
  Mo  Mo3  1  0.08168180  1.76145000  1.77979000  1
  Mo  Mo4  1  3.64094000  7.37278000  0.04957450  1
  Mo  Mo5  1  5.47268000  1.80447000  3.61403000  1
  Mo  Mo6  1  5.52028000  0.03601930  1.90088000  1
  Mo  Mo7  1  3.51681000  1.81326000  1.82427000  1
  Mo  Mo8  1  -0.04713650  3.64784000  3.56672000  1
  Mo  Mo9  1  1.79666000  5.34921000  3.67643000  1
  Mo  Mo10  1  1.81144000  3.65011000  1.74893000  1
  Mo  Mo11  1  -0.02672530  5.37406000  1.83582000  1
  Mo  Mo12  1  3.66267000  3.66253000  0.05028050  1
  Mo  Mo13  1  5.46730000  5.53615000  0.00160390  1
  Mo  Mo14  1  5.41602000  3.62358000  1.83289000  1
  Mo  Mo15  1  3.61168000  5.52320000  1.82649000  1
