# generated using pymatgen
data_Mo
_symmetry_space_group_name_H-M   'P 1'
_cell_length_a   7.28500180
_cell_length_b   7.28500180
_cell_length_c   3.64250088
_cell_angle_alpha   90.00000000
_cell_angle_beta   90.00000000
_cell_angle_gamma   90.00000000
_symmetry_Int_Tables_number   1
_chemical_formula_structural   Mo
_chemical_formula_sum   Mo16
_cell_volume   193.31207935
_cell_formula_units_Z   16
loop_
 _symmetry_equiv_pos_site_id
 _symmetry_equiv_pos_as_xyz
  1  'x, y, z'
loop_
 _atom_site_type_symbol
 _atom_site_label
 _atom_site_symmetry_multiplicity
 _atom_site_fract_x
 _atom_site_fract_y
 _atom_site_fract_z
 _atom_site_occupancy
  Mo  Mo0  1  7.22089000  -0.03735010  -0.04649290  1
  Mo  Mo1  1  1.85917000  1.81832000  3.62704000  1
  Mo  Mo2  1  1.88847000  0.00715594  1.81366000  1
  Mo  Mo3  1  0.07355980  1.81835000  1.76212000  1
  Mo  Mo4  1  3.65172000  7.28551000  0.10054500  1
  Mo  Mo5  1  5.44024000  1.81171000  3.63564000  1
  Mo  Mo6  1  5.44434000  0.01331970  1.84672000  1
  Mo  Mo7  1  3.61751000  1.83833000  1.82455000  1
  Mo  Mo8  1  0.07407280  3.55536000  3.56411000  1
  Mo  Mo9  1  1.69235000  5.53180000  3.63456000  1
  Mo  Mo10  1  1.75893000  3.63498000  1.74581000  1
  Mo  Mo11  1  -0.01507020  5.48828000  1.83380000  1
  Mo  Mo12  1  3.57124000  3.66724000  -0.01313140  1
  Mo  Mo13  1  5.52794000  5.44025000  -0.00235373  1
  Mo  Mo14  1  5.53700000  3.67770000  1.79937000  1
  Mo  Mo15  1  3.59665000  5.38805000  1.98606000  1
