# generated using pymatgen
data_Mo
_symmetry_space_group_name_H-M   'P 1'
_cell_length_a   7.28500180
_cell_length_b   7.28500180
_cell_length_c   3.64250088
_cell_angle_alpha   90.00000000
_cell_angle_beta   90.00000000
_cell_angle_gamma   90.00000000
_symmetry_Int_Tables_number   1
_chemical_formula_structural   Mo
_chemical_formula_sum   Mo16
_cell_volume   193.31207935
_cell_formula_units_Z   16
loop_
 _symmetry_equiv_pos_site_id
 _symmetry_equiv_pos_as_xyz
  1  'x, y, z'
loop_
 _atom_site_type_symbol
 _atom_site_label
 _atom_site_symmetry_multiplicity
 _atom_site_fract_x
 _atom_site_fract_y
 _atom_site_fract_z
 _atom_site_occupancy
  Mo  Mo0  1  7.36443000  -0.01079710  -0.03646570  1
  Mo  Mo1  1  1.76561000  1.79218000  3.66243000  1
  Mo  Mo2  1  1.74524000  0.01819930  1.81637000  1
  Mo  Mo3  1  -0.04239620  1.89191000  1.83820000  1
  Mo  Mo4  1  3.56183000  7.25010000  0.00591027  1
  Mo  Mo5  1  5.49380000  1.86093000  3.53175000  1
  Mo  Mo6  1  5.49208000  -0.02473750  1.79007000  1
  Mo  Mo7  1  3.61228000  1.78630000  1.87346000  1
  Mo  Mo8  1  0.09828200  3.56080000  3.67034000  1
  Mo  Mo9  1  1.83023000  5.42060000  3.73771000  1
  Mo  Mo10  1  1.93193000  3.58419000  1.84384000  1
  Mo  Mo11  1  0.04855550  5.31014000  1.82209000  1
  Mo  Mo12  1  3.71249000  3.67245000  -0.03699740  1
  Mo  Mo13  1  5.43430000  5.53771000  0.02429110  1
  Mo  Mo14  1  5.36307000  3.74068000  1.80765000  1
  Mo  Mo15  1  3.52728000  5.54834000  1.76135000  1
