# generated using pymatgen
data_Mo
_symmetry_space_group_name_H-M   'P 1'
_cell_length_a   7.28500180
_cell_length_b   7.28500180
_cell_length_c   3.64250088
_cell_angle_alpha   90.00000000
_cell_angle_beta   90.00000000
_cell_angle_gamma   90.00000000
_symmetry_Int_Tables_number   1
_chemical_formula_structural   Mo
_chemical_formula_sum   Mo16
_cell_volume   193.31207935
_cell_formula_units_Z   16
loop_
 _symmetry_equiv_pos_site_id
 _symmetry_equiv_pos_as_xyz
  1  'x, y, z'
loop_
 _atom_site_type_symbol
 _atom_site_label
 _atom_site_symmetry_multiplicity
 _atom_site_fract_x
 _atom_site_fract_y
 _atom_site_fract_z
 _atom_site_occupancy
  Mo  Mo0  1  7.29637000  0.03868300  0.05183670  1
  Mo  Mo1  1  1.90700000  1.75290000  3.55710000  1
  Mo  Mo2  1  1.76007000  -0.00385427  1.85776000  1
  Mo  Mo3  1  -0.09380480  1.75032000  1.82481000  1
  Mo  Mo4  1  3.60978000  7.24470000  0.04198900  1
  Mo  Mo5  1  5.54169000  1.87995000  3.67573000  1
  Mo  Mo6  1  5.48249000  -0.03243470  1.80960000  1
  Mo  Mo7  1  3.75845000  1.91163000  1.81872000  1
  Mo  Mo8  1  -0.00533797  3.58506000  3.64716000  1
  Mo  Mo9  1  1.79075000  5.46367000  3.59590000  1
  Mo  Mo10  1  1.76862000  3.61051000  1.82009000  1
  Mo  Mo11  1  -0.02972820  5.45883000  1.76474000  1
  Mo  Mo12  1  3.58991000  3.66691000  -0.03160380  1
  Mo  Mo13  1  5.46111000  5.45536000  0.02523320  1
  Mo  Mo14  1  5.48121000  3.65154000  1.80046000  1
  Mo  Mo15  1  3.62041000  5.50523000  1.85247000  1
