# generated using pymatgen
data_Mo
_symmetry_space_group_name_H-M   'P 1'
_cell_length_a   7.28500180
_cell_length_b   7.28500180
_cell_length_c   3.64250088
_cell_angle_alpha   90.00000000
_cell_angle_beta   90.00000000
_cell_angle_gamma   90.00000000
_symmetry_Int_Tables_number   1
_chemical_formula_structural   Mo
_chemical_formula_sum   Mo16
_cell_volume   193.31207935
_cell_formula_units_Z   16
loop_
 _symmetry_equiv_pos_site_id
 _symmetry_equiv_pos_as_xyz
  1  'x, y, z'
loop_
 _atom_site_type_symbol
 _atom_site_label
 _atom_site_symmetry_multiplicity
 _atom_site_fract_x
 _atom_site_fract_y
 _atom_site_fract_z
 _atom_site_occupancy
  Mo  Mo0  1  7.25670000  0.03388920  0.01486880  1
  Mo  Mo1  1  1.87186000  1.75828000  3.53745000  1
  Mo  Mo2  1  1.76903000  0.01998620  1.75706000  1
  Mo  Mo3  1  0.05598280  1.93951000  1.80038000  1
  Mo  Mo4  1  3.63046000  7.25631000  0.00561999  1
  Mo  Mo5  1  5.42914000  1.82849000  3.63803000  1
  Mo  Mo6  1  5.43351000  0.00200264  1.91489000  1
  Mo  Mo7  1  3.60884000  1.80971000  1.88450000  1
  Mo  Mo8  1  0.02796440  3.55379000  3.63892000  1
  Mo  Mo9  1  1.83359000  5.45767000  3.61528000  1
  Mo  Mo10  1  1.90117000  3.57668000  1.70051000  1
  Mo  Mo11  1  0.00381027  5.42200000  1.87084000  1
  Mo  Mo12  1  3.64369000  3.68396000  0.06905900  1
  Mo  Mo13  1  5.48031000  5.39850000  0.05059410  1
  Mo  Mo14  1  5.37168000  3.71986000  1.77759000  1
  Mo  Mo15  1  3.62125000  5.47835000  1.83640000  1
