# generated using pymatgen
data_Mo
_symmetry_space_group_name_H-M   'P 1'
_cell_length_a   7.28500180
_cell_length_b   7.28500180
_cell_length_c   3.64250088
_cell_angle_alpha   90.00000000
_cell_angle_beta   90.00000000
_cell_angle_gamma   90.00000000
_symmetry_Int_Tables_number   1
_chemical_formula_structural   Mo
_chemical_formula_sum   Mo16
_cell_volume   193.31207935
_cell_formula_units_Z   16
loop_
 _symmetry_equiv_pos_site_id
 _symmetry_equiv_pos_as_xyz
  1  'x, y, z'
loop_
 _atom_site_type_symbol
 _atom_site_label
 _atom_site_symmetry_multiplicity
 _atom_site_fract_x
 _atom_site_fract_y
 _atom_site_fract_z
 _atom_site_occupancy
  Mo  Mo0  1  7.25109000  -0.01916920  -0.09703400  1
  Mo  Mo1  1  1.77578000  1.83168000  3.65425000  1
  Mo  Mo2  1  1.83505000  0.00664024  1.76163000  1
  Mo  Mo3  1  0.02189010  1.83419000  1.79122000  1
  Mo  Mo4  1  3.69291000  7.29151000  0.03342230  1
  Mo  Mo5  1  5.43683000  1.79036000  3.64634000  1
  Mo  Mo6  1  5.51189000  0.01679420  1.92926000  1
  Mo  Mo7  1  3.68457000  1.76344000  1.82330000  1
  Mo  Mo8  1  -0.01439820  3.62052000  3.57030000  1
  Mo  Mo9  1  1.69962000  5.47063000  3.66121000  1
  Mo  Mo10  1  1.80312000  3.62934000  1.75761000  1
  Mo  Mo11  1  0.03967160  5.46529000  1.81653000  1
  Mo  Mo12  1  3.67190000  3.67471000  0.04969950  1
  Mo  Mo13  1  5.51142000  5.45094000  0.00768416  1
  Mo  Mo14  1  5.50933000  3.66041000  1.82641000  1
  Mo  Mo15  1  3.50833000  5.45173000  1.88017000  1
