# generated using pymatgen
data_Mo
_symmetry_space_group_name_H-M   'P 1'
_cell_length_a   7.28500180
_cell_length_b   7.28500180
_cell_length_c   3.64250088
_cell_angle_alpha   90.00000000
_cell_angle_beta   90.00000000
_cell_angle_gamma   90.00000000
_symmetry_Int_Tables_number   1
_chemical_formula_structural   Mo
_chemical_formula_sum   Mo16
_cell_volume   193.31207935
_cell_formula_units_Z   16
loop_
 _symmetry_equiv_pos_site_id
 _symmetry_equiv_pos_as_xyz
  1  'x, y, z'
loop_
 _atom_site_type_symbol
 _atom_site_label
 _atom_site_symmetry_multiplicity
 _atom_site_fract_x
 _atom_site_fract_y
 _atom_site_fract_z
 _atom_site_occupancy
  Mo  Mo0  1  7.31850000  -0.07000630  0.07050580  1
  Mo  Mo1  1  1.82528000  1.87815000  3.62603000  1
  Mo  Mo2  1  1.78490000  -0.04019060  1.74252000  1
  Mo  Mo3  1  0.04066140  1.83708000  1.76671000  1
  Mo  Mo4  1  3.64098000  7.29886000  -0.01535740  1
  Mo  Mo5  1  5.60241000  1.80283000  3.71304000  1
  Mo  Mo6  1  5.46980000  0.05460930  1.83027000  1
  Mo  Mo7  1  3.61821000  1.81400000  1.83743000  1
  Mo  Mo8  1  -0.11871700  3.65806000  3.63306000  1
  Mo  Mo9  1  1.90303000  5.44263000  3.58732000  1
  Mo  Mo10  1  1.88041000  3.64969000  1.82169000  1
  Mo  Mo11  1  -0.09199200  5.41092000  1.85205000  1
  Mo  Mo12  1  3.68931000  3.57273000  -0.07697040  1
  Mo  Mo13  1  5.36626000  5.49444000  0.03141140  1
  Mo  Mo14  1  5.30617000  3.66309000  1.82773000  1
  Mo  Mo15  1  3.70379000  5.47211000  1.86456000  1
