# generated using pymatgen
data_Mo
_symmetry_space_group_name_H-M   'P 1'
_cell_length_a   7.27806742
_cell_length_b   7.27806742
_cell_length_c   3.63903379
_cell_angle_alpha   90.00000000
_cell_angle_beta   90.00000000
_cell_angle_gamma   90.00000000
_symmetry_Int_Tables_number   1
_chemical_formula_structural   Mo
_chemical_formula_sum   Mo16
_cell_volume   192.76058556
_cell_formula_units_Z   16
loop_
 _symmetry_equiv_pos_site_id
 _symmetry_equiv_pos_as_xyz
  1  'x, y, z'
loop_
 _atom_site_type_symbol
 _atom_site_label
 _atom_site_symmetry_multiplicity
 _atom_site_fract_x
 _atom_site_fract_y
 _atom_site_fract_z
 _atom_site_occupancy
  Mo  Mo0  1  -0.00516971  7.27497000  3.62953000  1
  Mo  Mo1  1  1.82073000  1.82625000  0.02796410  1
  Mo  Mo2  1  1.79962000  7.26531000  1.82937000  1
  Mo  Mo3  1  7.28180000  1.81886000  1.81699000  1
  Mo  Mo4  1  3.63066000  7.27512000  0.00225426  1
  Mo  Mo5  1  5.46321000  1.81407000  0.00870783  1
  Mo  Mo6  1  5.46621000  0.02518710  1.84283000  1
  Mo  Mo7  1  3.63610000  1.81123000  1.82639000  1
  Mo  Mo8  1  7.26749000  3.64634000  3.63021000  1
  Mo  Mo9  1  1.84165000  5.47360000  3.63140000  1
  Mo  Mo10  1  1.80390000  3.62651000  1.77269000  1
  Mo  Mo11  1  0.02248260  5.47690000  1.81135000  1
  Mo  Mo12  1  3.65879000  3.65345000  3.63375000  1
  Mo  Mo13  1  5.46229000  5.44280000  3.63377000  1
  Mo  Mo14  1  5.45888000  3.61343000  1.82365000  1
  Mo  Mo15  1  3.61534000  5.45805000  1.83016000  1
