# generated using pymatgen
data_Mo
_symmetry_space_group_name_H-M   'P 1'
_cell_length_a   7.28500180
_cell_length_b   7.28500180
_cell_length_c   3.64250088
_cell_angle_alpha   90.00000000
_cell_angle_beta   90.00000000
_cell_angle_gamma   90.00000000
_symmetry_Int_Tables_number   1
_chemical_formula_structural   Mo
_chemical_formula_sum   Mo16
_cell_volume   193.31207935
_cell_formula_units_Z   16
loop_
 _symmetry_equiv_pos_site_id
 _symmetry_equiv_pos_as_xyz
  1  'x, y, z'
loop_
 _atom_site_type_symbol
 _atom_site_label
 _atom_site_symmetry_multiplicity
 _atom_site_fract_x
 _atom_site_fract_y
 _atom_site_fract_z
 _atom_site_occupancy
  Mo  Mo0  1  7.31552000  -0.09501590  0.10173800  1
  Mo  Mo1  1  1.89875000  1.87320000  3.68202000  1
  Mo  Mo2  1  1.79913000  -0.04350220  1.85087000  1
  Mo  Mo3  1  0.00409657  1.85390000  1.86382000  1
  Mo  Mo4  1  3.62034000  7.34684000  -0.05457630  1
  Mo  Mo5  1  5.51860000  1.77154000  3.66799000  1
  Mo  Mo6  1  5.39847000  0.04943540  1.72427000  1
  Mo  Mo7  1  3.64610000  1.78092000  1.81361000  1
  Mo  Mo8  1  -0.05139520  3.67927000  3.68882000  1
  Mo  Mo9  1  1.85173000  5.38506000  3.61559000  1
  Mo  Mo10  1  1.85363000  3.68788000  1.87492000  1
  Mo  Mo11  1  -0.03946530  5.32154000  1.83037000  1
  Mo  Mo12  1  3.66750000  3.58807000  -0.11067100  1
  Mo  Mo13  1  5.41761000  5.52670000  -0.06195390  1
  Mo  Mo14  1  5.36087000  3.66650000  1.80840000  1
  Mo  Mo15  1  3.67751000  5.54667000  1.81678000  1
