# generated using pymatgen
data_Mo
_symmetry_space_group_name_H-M   'P 1'
_cell_length_a   7.28500180
_cell_length_b   7.28500180
_cell_length_c   3.64250088
_cell_angle_alpha   90.00000000
_cell_angle_beta   90.00000000
_cell_angle_gamma   90.00000000
_symmetry_Int_Tables_number   1
_chemical_formula_structural   Mo
_chemical_formula_sum   Mo16
_cell_volume   193.31207935
_cell_formula_units_Z   16
loop_
 _symmetry_equiv_pos_site_id
 _symmetry_equiv_pos_as_xyz
  1  'x, y, z'
loop_
 _atom_site_type_symbol
 _atom_site_label
 _atom_site_symmetry_multiplicity
 _atom_site_fract_x
 _atom_site_fract_y
 _atom_site_fract_z
 _atom_site_occupancy
  Mo  Mo0  1  7.31856000  0.00665037  0.00623435  1
  Mo  Mo1  1  1.77667000  1.79540000  3.66465000  1
  Mo  Mo2  1  1.93747000  -0.01112330  1.84956000  1
  Mo  Mo3  1  -0.03558640  1.78950000  1.79303000  1
  Mo  Mo4  1  3.67300000  7.30222000  0.00551844  1
  Mo  Mo5  1  5.45962000  1.83815000  3.70159000  1
  Mo  Mo6  1  5.37322000  -0.02831820  1.77694000  1
  Mo  Mo7  1  3.60611000  1.88591000  1.81414000  1
  Mo  Mo8  1  0.05073880  3.70176000  3.59303000  1
  Mo  Mo9  1  1.78033000  5.48072000  3.62795000  1
  Mo  Mo10  1  1.81169000  3.61831000  1.83723000  1
  Mo  Mo11  1  0.05176650  5.48682000  1.90048000  1
  Mo  Mo12  1  3.57404000  3.67580000  0.00698590  1
  Mo  Mo13  1  5.47023000  5.43586000  -0.07082170  1
  Mo  Mo14  1  5.48965000  3.61702000  1.78094000  1
  Mo  Mo15  1  3.60150000  5.34433000  1.82455000  1
