# generated using pymatgen
data_Mo
_symmetry_space_group_name_H-M   'P 1'
_cell_length_a   7.28500180
_cell_length_b   7.28500180
_cell_length_c   3.64250088
_cell_angle_alpha   90.00000000
_cell_angle_beta   90.00000000
_cell_angle_gamma   90.00000000
_symmetry_Int_Tables_number   1
_chemical_formula_structural   Mo
_chemical_formula_sum   Mo16
_cell_volume   193.31207935
_cell_formula_units_Z   16
loop_
 _symmetry_equiv_pos_site_id
 _symmetry_equiv_pos_as_xyz
  1  'x, y, z'
loop_
 _atom_site_type_symbol
 _atom_site_label
 _atom_site_symmetry_multiplicity
 _atom_site_fract_x
 _atom_site_fract_y
 _atom_site_fract_z
 _atom_site_occupancy
  Mo  Mo0  1  7.33777000  -0.06355910  0.04178070  1
  Mo  Mo1  1  1.77675000  1.94406000  3.66664000  1
  Mo  Mo2  1  1.85619000  -0.00064549  1.89071000  1
  Mo  Mo3  1  -0.00565402  1.91785000  1.80450000  1
  Mo  Mo4  1  3.58272000  7.32111000  0.00230827  1
  Mo  Mo5  1  5.50405000  1.72361000  3.63244000  1
  Mo  Mo6  1  5.53535000  -0.07510380  1.77569000  1
  Mo  Mo7  1  3.61214000  1.72557000  1.80017000  1
  Mo  Mo8  1  -0.01615600  3.70164000  3.67198000  1
  Mo  Mo9  1  1.81239000  5.40741000  3.62649000  1
  Mo  Mo10  1  1.84759000  3.64847000  1.86278000  1
  Mo  Mo11  1  0.05660400  5.49658000  1.76200000  1
  Mo  Mo12  1  3.67766000  3.58752000  -0.04491780  1
  Mo  Mo13  1  5.45465000  5.45161000  0.00140500  1
  Mo  Mo14  1  5.38416000  3.66065000  1.77825000  1
  Mo  Mo15  1  3.52278000  5.49223000  1.83977000  1
