# generated using pymatgen
data_Mo
_symmetry_space_group_name_H-M   'P 1'
_cell_length_a   7.28500180
_cell_length_b   7.28500180
_cell_length_c   3.64250088
_cell_angle_alpha   90.00000000
_cell_angle_beta   90.00000000
_cell_angle_gamma   90.00000000
_symmetry_Int_Tables_number   1
_chemical_formula_structural   Mo
_chemical_formula_sum   Mo16
_cell_volume   193.31207935
_cell_formula_units_Z   16
loop_
 _symmetry_equiv_pos_site_id
 _symmetry_equiv_pos_as_xyz
  1  'x, y, z'
loop_
 _atom_site_type_symbol
 _atom_site_label
 _atom_site_symmetry_multiplicity
 _atom_site_fract_x
 _atom_site_fract_y
 _atom_site_fract_z
 _atom_site_occupancy
  Mo  Mo0  1  7.27825000  0.04593870  0.01135980  1
  Mo  Mo1  1  1.76459000  1.85081000  3.71067000  1
  Mo  Mo2  1  1.89446000  0.01909860  1.82013000  1
  Mo  Mo3  1  -0.08132860  1.89613000  1.85752000  1
  Mo  Mo4  1  3.67201000  7.29136000  -0.00131161  1
  Mo  Mo5  1  5.53285000  1.79610000  3.67443000  1
  Mo  Mo6  1  5.48061000  -0.07126660  1.76218000  1
  Mo  Mo7  1  3.63970000  1.79623000  1.75300000  1
  Mo  Mo8  1  0.05879470  3.60629000  3.65229000  1
  Mo  Mo9  1  1.80191000  5.55451000  3.61900000  1
  Mo  Mo10  1  1.73927000  3.59004000  1.82751000  1
  Mo  Mo11  1  -0.04169070  5.50452000  1.86698000  1
  Mo  Mo12  1  3.61807000  3.64272000  -0.00447638  1
  Mo  Mo13  1  5.43612000  5.42980000  -0.09109000  1
  Mo  Mo14  1  5.55899000  3.64551000  1.78883000  1
  Mo  Mo15  1  3.58638000  5.34120000  1.86500000  1
