# generated using pymatgen
data_Mo
_symmetry_space_group_name_H-M   'P 1'
_cell_length_a   7.28500180
_cell_length_b   7.28500180
_cell_length_c   3.64250088
_cell_angle_alpha   90.00000000
_cell_angle_beta   90.00000000
_cell_angle_gamma   90.00000000
_symmetry_Int_Tables_number   1
_chemical_formula_structural   Mo
_chemical_formula_sum   Mo16
_cell_volume   193.31207935
_cell_formula_units_Z   16
loop_
 _symmetry_equiv_pos_site_id
 _symmetry_equiv_pos_as_xyz
  1  'x, y, z'
loop_
 _atom_site_type_symbol
 _atom_site_label
 _atom_site_symmetry_multiplicity
 _atom_site_fract_x
 _atom_site_fract_y
 _atom_site_fract_z
 _atom_site_occupancy
  Mo  Mo0  1  7.22071000  0.01891070  0.02629280  1
  Mo  Mo1  1  1.95463000  1.86442000  3.64312000  1
  Mo  Mo2  1  1.79247000  -0.09617420  1.89922000  1
  Mo  Mo3  1  -0.03345990  1.86536000  1.77987000  1
  Mo  Mo4  1  3.73568000  7.35796000  0.00325055  1
  Mo  Mo5  1  5.33060000  1.86378000  3.63717000  1
  Mo  Mo6  1  5.53898000  0.08186140  1.79332000  1
  Mo  Mo7  1  3.57277000  1.67469000  1.79267000  1
  Mo  Mo8  1  0.01245270  3.60328000  3.64921000  1
  Mo  Mo9  1  1.77198000  5.41375000  3.63160000  1
  Mo  Mo10  1  1.91767000  3.66138000  1.88429000  1
  Mo  Mo11  1  -0.10772200  5.44367000  1.77980000  1
  Mo  Mo12  1  3.65838000  3.66954000  0.01330850  1
  Mo  Mo13  1  5.43283000  5.44312000  -0.09286870  1
  Mo  Mo14  1  5.44255000  3.55957000  1.80359000  1
  Mo  Mo15  1  3.69847000  5.51387000  1.86815000  1
