# generated using pymatgen
data_Mo
_symmetry_space_group_name_H-M   'P 1'
_cell_length_a   7.28500180
_cell_length_b   7.28500180
_cell_length_c   3.64250088
_cell_angle_alpha   90.00000000
_cell_angle_beta   90.00000000
_cell_angle_gamma   90.00000000
_symmetry_Int_Tables_number   1
_chemical_formula_structural   Mo
_chemical_formula_sum   Mo16
_cell_volume   193.31207935
_cell_formula_units_Z   16
loop_
 _symmetry_equiv_pos_site_id
 _symmetry_equiv_pos_as_xyz
  1  'x, y, z'
loop_
 _atom_site_type_symbol
 _atom_site_label
 _atom_site_symmetry_multiplicity
 _atom_site_fract_x
 _atom_site_fract_y
 _atom_site_fract_z
 _atom_site_occupancy
  Mo  Mo0  1  7.27284000  -0.07295250  0.01053320  1
  Mo  Mo1  1  1.76510000  1.81950000  3.61700000  1
  Mo  Mo2  1  1.88142000  -0.04176210  1.80912000  1
  Mo  Mo3  1  -0.06807780  1.81992000  1.78077000  1
  Mo  Mo4  1  3.62156000  7.40762000  0.01884670  1
  Mo  Mo5  1  5.46339000  1.76338000  3.70096000  1
  Mo  Mo6  1  5.42268000  -0.00081466  1.81403000  1
  Mo  Mo7  1  3.65333000  1.81101000  1.79456000  1
  Mo  Mo8  1  -0.00368030  3.60802000  3.62710000  1
  Mo  Mo9  1  1.85117000  5.37422000  3.57706000  1
  Mo  Mo10  1  1.83131000  3.55546000  1.80047000  1
  Mo  Mo11  1  0.00131371  5.45014000  1.79346000  1
  Mo  Mo12  1  3.76824000  3.68440000  0.00008079  1
  Mo  Mo13  1  5.39407000  5.55379000  0.01546570  1
  Mo  Mo14  1  5.47012000  3.72713000  1.83848000  1
  Mo  Mo15  1  3.61420000  5.47992000  1.91405000  1
