# generated using pymatgen
data_Mo
_symmetry_space_group_name_H-M   'P 1'
_cell_length_a   7.28500180
_cell_length_b   7.28500180
_cell_length_c   3.64250088
_cell_angle_alpha   90.00000000
_cell_angle_beta   90.00000000
_cell_angle_gamma   90.00000000
_symmetry_Int_Tables_number   1
_chemical_formula_structural   Mo
_chemical_formula_sum   Mo16
_cell_volume   193.31207935
_cell_formula_units_Z   16
loop_
 _symmetry_equiv_pos_site_id
 _symmetry_equiv_pos_as_xyz
  1  'x, y, z'
loop_
 _atom_site_type_symbol
 _atom_site_label
 _atom_site_symmetry_multiplicity
 _atom_site_fract_x
 _atom_site_fract_y
 _atom_site_fract_z
 _atom_site_occupancy
  Mo  Mo0  1  7.21460000  -0.04109540  -0.01792270  1
  Mo  Mo1  1  1.86835000  1.74107000  3.69775000  1
  Mo  Mo2  1  1.74842000  -0.03877050  1.83021000  1
  Mo  Mo3  1  -0.06273270  1.85709000  1.85588000  1
  Mo  Mo4  1  3.70095000  7.26735000  -0.03098380  1
  Mo  Mo5  1  5.44796000  1.83858000  3.63725000  1
  Mo  Mo6  1  5.46978000  0.04258570  1.76339000  1
  Mo  Mo7  1  3.66501000  1.83065000  1.87281000  1
  Mo  Mo8  1  0.01022650  3.58238000  3.65585000  1
  Mo  Mo9  1  1.82099000  5.50951000  3.70390000  1
  Mo  Mo10  1  1.81447000  3.58209000  1.80559000  1
  Mo  Mo11  1  0.04078200  5.50818000  1.84464000  1
  Mo  Mo12  1  3.60307000  3.63127000  -0.03616480  1
  Mo  Mo13  1  5.51906000  5.41128000  -0.05021950  1
  Mo  Mo14  1  5.46046000  3.76392000  1.71957000  1
  Mo  Mo15  1  3.61761000  5.45291000  1.86044000  1
