# generated using pymatgen
data_Mo
_symmetry_space_group_name_H-M   'P 1'
_cell_length_a   7.27806742
_cell_length_b   7.27806742
_cell_length_c   3.63903379
_cell_angle_alpha   90.00000000
_cell_angle_beta   90.00000000
_cell_angle_gamma   90.00000000
_symmetry_Int_Tables_number   1
_chemical_formula_structural   Mo
_chemical_formula_sum   Mo16
_cell_volume   192.76058556
_cell_formula_units_Z   16
loop_
 _symmetry_equiv_pos_site_id
 _symmetry_equiv_pos_as_xyz
  1  'x, y, z'
loop_
 _atom_site_type_symbol
 _atom_site_label
 _atom_site_symmetry_multiplicity
 _atom_site_fract_x
 _atom_site_fract_y
 _atom_site_fract_z
 _atom_site_occupancy
  Mo  Mo0  1  -0.00702682  7.26083000  3.64871000  1
  Mo  Mo1  1  1.84353000  1.81848000  -0.00379164  1
  Mo  Mo2  1  1.78850000  7.30002000  1.82067000  1
  Mo  Mo3  1  7.30372000  1.81190000  1.79438000  1
  Mo  Mo4  1  3.66371000  7.29314000  0.01085290  1
  Mo  Mo5  1  5.46490000  1.82967000  0.01829010  1
  Mo  Mo6  1  5.47883000  -0.01550560  1.83429000  1
  Mo  Mo7  1  3.63026000  1.82239000  1.84320000  1
  Mo  Mo8  1  7.26279000  3.64485000  3.62542000  1
  Mo  Mo9  1  1.83060000  5.45858000  3.64192000  1
  Mo  Mo10  1  1.79138000  3.62574000  1.82042000  1
  Mo  Mo11  1  0.00234639  5.46545000  1.80598000  1
  Mo  Mo12  1  3.62765000  3.62669000  3.62249000  1
  Mo  Mo13  1  5.45655000  5.45453000  3.62718000  1
  Mo  Mo14  1  5.45564000  3.63241000  1.82589000  1
  Mo  Mo15  1  3.63063000  5.47289000  1.81514000  1
