# generated using pymatgen
data_Mo
_symmetry_space_group_name_H-M   'P 1'
_cell_length_a   7.28500180
_cell_length_b   7.28500180
_cell_length_c   3.64250088
_cell_angle_alpha   90.00000000
_cell_angle_beta   90.00000000
_cell_angle_gamma   90.00000000
_symmetry_Int_Tables_number   1
_chemical_formula_structural   Mo
_chemical_formula_sum   Mo16
_cell_volume   193.31207935
_cell_formula_units_Z   16
loop_
 _symmetry_equiv_pos_site_id
 _symmetry_equiv_pos_as_xyz
  1  'x, y, z'
loop_
 _atom_site_type_symbol
 _atom_site_label
 _atom_site_symmetry_multiplicity
 _atom_site_fract_x
 _atom_site_fract_y
 _atom_site_fract_z
 _atom_site_occupancy
  Mo  Mo0  1  7.24618000  0.07476630  0.00350522  1
  Mo  Mo1  1  1.80763000  1.83545000  3.64755000  1
  Mo  Mo2  1  1.80690000  0.05068700  1.85241000  1
  Mo  Mo3  1  -0.02931210  1.77965000  1.78218000  1
  Mo  Mo4  1  3.67056000  7.24633000  0.00969897  1
  Mo  Mo5  1  5.41959000  1.75202000  3.75100000  1
  Mo  Mo6  1  5.44167000  -0.04640480  1.81429000  1
  Mo  Mo7  1  3.76102000  1.85968000  1.79339000  1
  Mo  Mo8  1  -0.12667700  3.64467000  3.57753000  1
  Mo  Mo9  1  1.87988000  5.47122000  3.57971000  1
  Mo  Mo10  1  1.71469000  3.58090000  1.80655000  1
  Mo  Mo11  1  0.04447800  5.51677000  1.81148000  1
  Mo  Mo12  1  3.64071000  3.61990000  0.02193030  1
  Mo  Mo13  1  5.41654000  5.46122000  -0.01464250  1
  Mo  Mo14  1  5.52552000  3.66457000  1.81210000  1
  Mo  Mo15  1  3.71960000  5.42757000  1.86329000  1
