# generated using pymatgen
data_Mo
_symmetry_space_group_name_H-M   'P 1'
_cell_length_a   7.28500180
_cell_length_b   7.28500180
_cell_length_c   3.64250088
_cell_angle_alpha   90.00000000
_cell_angle_beta   90.00000000
_cell_angle_gamma   90.00000000
_symmetry_Int_Tables_number   1
_chemical_formula_structural   Mo
_chemical_formula_sum   Mo16
_cell_volume   193.31207935
_cell_formula_units_Z   16
loop_
 _symmetry_equiv_pos_site_id
 _symmetry_equiv_pos_as_xyz
  1  'x, y, z'
loop_
 _atom_site_type_symbol
 _atom_site_label
 _atom_site_symmetry_multiplicity
 _atom_site_fract_x
 _atom_site_fract_y
 _atom_site_fract_z
 _atom_site_occupancy
  Mo  Mo0  1  7.29480000  0.00285487  -0.10121600  1
  Mo  Mo1  1  1.67605000  1.85697000  3.64495000  1
  Mo  Mo2  1  1.77621000  0.03224350  1.83909000  1
  Mo  Mo3  1  0.03724210  1.88155000  1.82788000  1
  Mo  Mo4  1  3.59806000  7.25656000  -0.00226493  1
  Mo  Mo5  1  5.43434000  1.77458000  3.62051000  1
  Mo  Mo6  1  5.56493000  -0.06166640  1.83374000  1
  Mo  Mo7  1  3.54329000  1.73139000  1.80342000  1
  Mo  Mo8  1  -0.00707568  3.65652000  3.60470000  1
  Mo  Mo9  1  1.85227000  5.47075000  3.70640000  1
  Mo  Mo10  1  1.88173000  3.60344000  1.75125000  1
  Mo  Mo11  1  0.04383120  5.51242000  1.80466000  1
  Mo  Mo12  1  3.67702000  3.63573000  0.07859140  1
  Mo  Mo13  1  5.48350000  5.46945000  0.00179867  1
  Mo  Mo14  1  5.46978000  3.65731000  1.85315000  1
  Mo  Mo15  1  3.61301000  5.45889000  1.84534000  1
