# generated using pymatgen
data_Mo
_symmetry_space_group_name_H-M   'P 1'
_cell_length_a   7.28500180
_cell_length_b   7.28500180
_cell_length_c   3.64250088
_cell_angle_alpha   90.00000000
_cell_angle_beta   90.00000000
_cell_angle_gamma   90.00000000
_symmetry_Int_Tables_number   1
_chemical_formula_structural   Mo
_chemical_formula_sum   Mo16
_cell_volume   193.31207935
_cell_formula_units_Z   16
loop_
 _symmetry_equiv_pos_site_id
 _symmetry_equiv_pos_as_xyz
  1  'x, y, z'
loop_
 _atom_site_type_symbol
 _atom_site_label
 _atom_site_symmetry_multiplicity
 _atom_site_fract_x
 _atom_site_fract_y
 _atom_site_fract_z
 _atom_site_occupancy
  Mo  Mo0  1  7.28228000  -0.02135360  -0.01882830  1
  Mo  Mo1  1  1.82881000  1.75542000  3.69815000  1
  Mo  Mo2  1  1.82096000  -0.02102280  1.82043000  1
  Mo  Mo3  1  -0.06327400  1.81065000  1.82164000  1
  Mo  Mo4  1  3.64191000  7.34769000  -0.01869860  1
  Mo  Mo5  1  5.40361000  1.85471000  3.59483000  1
  Mo  Mo6  1  5.44485000  -0.02362160  1.76503000  1
  Mo  Mo7  1  3.60926000  1.83241000  1.79709000  1
  Mo  Mo8  1  0.18360400  3.67552000  3.63129000  1
  Mo  Mo9  1  1.77501000  5.57592000  3.63439000  1
  Mo  Mo10  1  1.81338000  3.59895000  1.84883000  1
  Mo  Mo11  1  0.04978430  5.51276000  1.96695000  1
  Mo  Mo12  1  3.59057000  3.63187000  0.00345807  1
  Mo  Mo13  1  5.47308000  5.43017000  -0.07686080  1
  Mo  Mo14  1  5.51758000  3.68082000  1.79169000  1
  Mo  Mo15  1  3.56758000  5.29809000  1.85262000  1
