# generated using pymatgen
data_Mo
_symmetry_space_group_name_H-M   'P 1'
_cell_length_a   7.28500180
_cell_length_b   7.28500180
_cell_length_c   3.64250088
_cell_angle_alpha   90.00000000
_cell_angle_beta   90.00000000
_cell_angle_gamma   90.00000000
_symmetry_Int_Tables_number   1
_chemical_formula_structural   Mo
_chemical_formula_sum   Mo16
_cell_volume   193.31207935
_cell_formula_units_Z   16
loop_
 _symmetry_equiv_pos_site_id
 _symmetry_equiv_pos_as_xyz
  1  'x, y, z'
loop_
 _atom_site_type_symbol
 _atom_site_label
 _atom_site_symmetry_multiplicity
 _atom_site_fract_x
 _atom_site_fract_y
 _atom_site_fract_z
 _atom_site_occupancy
  Mo  Mo0  1  7.23423000  -0.04081020  -0.00735467  1
  Mo  Mo1  1  1.80647000  1.84862000  3.62810000  1
  Mo  Mo2  1  1.94682000  0.01270510  1.80564000  1
  Mo  Mo3  1  -0.13147200  1.76022000  1.83152000  1
  Mo  Mo4  1  3.69175000  7.32910000  0.01866950  1
  Mo  Mo5  1  5.44764000  1.82495000  3.58361000  1
  Mo  Mo6  1  5.37242000  -0.00237970  1.82740000  1
  Mo  Mo7  1  3.61718000  1.85179000  1.87163000  1
  Mo  Mo8  1  0.02554430  3.63002000  3.61054000  1
  Mo  Mo9  1  1.81111000  5.39507000  3.69771000  1
  Mo  Mo10  1  1.84115000  3.61290000  1.82011000  1
  Mo  Mo11  1  -0.06319560  5.55704000  1.74803000  1
  Mo  Mo12  1  3.70247000  3.61521000  0.02523490  1
  Mo  Mo13  1  5.50223000  5.52459000  -0.03437390  1
  Mo  Mo14  1  5.49766000  3.64662000  1.84026000  1
  Mo  Mo15  1  3.63699000  5.37336000  1.84527000  1
