# generated using pymatgen
data_Mo
_symmetry_space_group_name_H-M   'P 1'
_cell_length_a   7.28500180
_cell_length_b   7.28500180
_cell_length_c   3.64250088
_cell_angle_alpha   90.00000000
_cell_angle_beta   90.00000000
_cell_angle_gamma   90.00000000
_symmetry_Int_Tables_number   1
_chemical_formula_structural   Mo
_chemical_formula_sum   Mo16
_cell_volume   193.31207935
_cell_formula_units_Z   16
loop_
 _symmetry_equiv_pos_site_id
 _symmetry_equiv_pos_as_xyz
  1  'x, y, z'
loop_
 _atom_site_type_symbol
 _atom_site_label
 _atom_site_symmetry_multiplicity
 _atom_site_fract_x
 _atom_site_fract_y
 _atom_site_fract_z
 _atom_site_occupancy
  Mo  Mo0  1  7.27000000  0.02900070  0.00301236  1
  Mo  Mo1  1  1.86878000  1.90686000  3.68019000  1
  Mo  Mo2  1  1.72585000  -0.04758820  1.81177000  1
  Mo  Mo3  1  -0.00658601  1.86141000  1.86452000  1
  Mo  Mo4  1  3.65023000  7.26803000  -0.09196780  1
  Mo  Mo5  1  5.41405000  1.80247000  3.60421000  1
  Mo  Mo6  1  5.45851000  -0.03863230  1.82119000  1
  Mo  Mo7  1  3.58618000  1.73268000  1.81929000  1
  Mo  Mo8  1  -0.05820050  3.74679000  3.69425000  1
  Mo  Mo9  1  1.84079000  5.40432000  3.66687000  1
  Mo  Mo10  1  1.95374000  3.69834000  1.84149000  1
  Mo  Mo11  1  -0.06006850  5.45326000  1.84513000  1
  Mo  Mo12  1  3.73828000  3.55609000  0.00007761  1
  Mo  Mo13  1  5.47654000  5.49444000  -0.02778120  1
  Mo  Mo14  1  5.40009000  3.54596000  1.88415000  1
  Mo  Mo15  1  3.68082000  5.52557000  1.69559000  1
