# generated using pymatgen
data_Mo
_symmetry_space_group_name_H-M   'P 1'
_cell_length_a   7.28500180
_cell_length_b   7.28500180
_cell_length_c   3.64250088
_cell_angle_alpha   90.00000000
_cell_angle_beta   90.00000000
_cell_angle_gamma   90.00000000
_symmetry_Int_Tables_number   1
_chemical_formula_structural   Mo
_chemical_formula_sum   Mo16
_cell_volume   193.31207935
_cell_formula_units_Z   16
loop_
 _symmetry_equiv_pos_site_id
 _symmetry_equiv_pos_as_xyz
  1  'x, y, z'
loop_
 _atom_site_type_symbol
 _atom_site_label
 _atom_site_symmetry_multiplicity
 _atom_site_fract_x
 _atom_site_fract_y
 _atom_site_fract_z
 _atom_site_occupancy
  Mo  Mo0  1  7.31267000  -0.03957110  0.02541620  1
  Mo  Mo1  1  1.80040000  1.83903000  3.58435000  1
  Mo  Mo2  1  1.76869000  0.08696460  1.76903000  1
  Mo  Mo3  1  -0.08946990  1.83548000  1.87632000  1
  Mo  Mo4  1  3.66641000  7.31383000  -0.03729670  1
  Mo  Mo5  1  5.48779000  1.77385000  3.62644000  1
  Mo  Mo6  1  5.49122000  -0.06231330  1.84024000  1
  Mo  Mo7  1  3.69039000  1.76367000  1.81271000  1
  Mo  Mo8  1  0.06658560  3.66074000  3.63378000  1
  Mo  Mo9  1  1.69689000  5.43876000  3.69666000  1
  Mo  Mo10  1  1.87486000  3.62257000  1.76711000  1
  Mo  Mo11  1  -0.00675494  5.41730000  1.76720000  1
  Mo  Mo12  1  3.70776000  3.60008000  -0.00132965  1
  Mo  Mo13  1  5.52728000  5.50562000  0.05457170  1
  Mo  Mo14  1  5.39941000  3.70494000  1.89856000  1
  Mo  Mo15  1  3.54485000  5.47804000  1.79824000  1
