# generated using pymatgen
data_Mo
_symmetry_space_group_name_H-M   'P 1'
_cell_length_a   7.28500180
_cell_length_b   7.28500180
_cell_length_c   3.64250088
_cell_angle_alpha   90.00000000
_cell_angle_beta   90.00000000
_cell_angle_gamma   90.00000000
_symmetry_Int_Tables_number   1
_chemical_formula_structural   Mo
_chemical_formula_sum   Mo16
_cell_volume   193.31207935
_cell_formula_units_Z   16
loop_
 _symmetry_equiv_pos_site_id
 _symmetry_equiv_pos_as_xyz
  1  'x, y, z'
loop_
 _atom_site_type_symbol
 _atom_site_label
 _atom_site_symmetry_multiplicity
 _atom_site_fract_x
 _atom_site_fract_y
 _atom_site_fract_z
 _atom_site_occupancy
  Mo  Mo0  1  7.27387000  -0.00585175  -0.03135760  1
  Mo  Mo1  1  1.84404000  1.84390000  3.64603000  1
  Mo  Mo2  1  1.80978000  -0.02897010  1.80255000  1
  Mo  Mo3  1  0.10589900  1.83657000  1.84537000  1
  Mo  Mo4  1  3.61973000  7.20352000  -0.03919400  1
  Mo  Mo5  1  5.49649000  1.72775000  3.69784000  1
  Mo  Mo6  1  5.49965000  0.01872230  1.84600000  1
  Mo  Mo7  1  3.58974000  1.87050000  1.81048000  1
  Mo  Mo8  1  -0.01841510  3.72692000  3.65447000  1
  Mo  Mo9  1  1.77225000  5.48824000  3.58527000  1
  Mo  Mo10  1  1.78628000  3.73396000  1.77703000  1
  Mo  Mo11  1  0.01748000  5.43265000  1.90157000  1
  Mo  Mo12  1  3.48931000  3.57478000  -0.06451050  1
  Mo  Mo13  1  5.57216000  5.47284000  0.06020160  1
  Mo  Mo14  1  5.43596000  3.58672000  1.83663000  1
  Mo  Mo15  1  3.64477000  5.45675000  1.78364000  1
