# generated using pymatgen
data_Mo
_symmetry_space_group_name_H-M   'P 1'
_cell_length_a   7.28500180
_cell_length_b   7.28500180
_cell_length_c   3.64250088
_cell_angle_alpha   90.00000000
_cell_angle_beta   90.00000000
_cell_angle_gamma   90.00000000
_symmetry_Int_Tables_number   1
_chemical_formula_structural   Mo
_chemical_formula_sum   Mo16
_cell_volume   193.31207935
_cell_formula_units_Z   16
loop_
 _symmetry_equiv_pos_site_id
 _symmetry_equiv_pos_as_xyz
  1  'x, y, z'
loop_
 _atom_site_type_symbol
 _atom_site_label
 _atom_site_symmetry_multiplicity
 _atom_site_fract_x
 _atom_site_fract_y
 _atom_site_fract_z
 _atom_site_occupancy
  Mo  Mo0  1  7.19367000  -0.03636210  -0.05074650  1
  Mo  Mo1  1  1.86640000  1.79154000  3.73564000  1
  Mo  Mo2  1  1.83005000  -0.02746910  1.87984000  1
  Mo  Mo3  1  -0.00184180  1.71494000  1.75539000  1
  Mo  Mo4  1  3.62380000  7.33523000  0.00595533  1
  Mo  Mo5  1  5.37920000  1.80343000  3.63797000  1
  Mo  Mo6  1  5.32026000  0.04068280  1.74556000  1
  Mo  Mo7  1  3.72891000  1.97641000  1.81091000  1
  Mo  Mo8  1  -0.03157390  3.67366000  3.64665000  1
  Mo  Mo9  1  1.86765000  5.41070000  3.64434000  1
  Mo  Mo10  1  1.76683000  3.57645000  1.89098000  1
  Mo  Mo11  1  0.07168280  5.47032000  1.87291000  1
  Mo  Mo12  1  3.65892000  3.60780000  -0.00995666  1
  Mo  Mo13  1  5.42655000  5.49841000  -0.02748790  1
  Mo  Mo14  1  5.54756000  3.67703000  1.74872000  1
  Mo  Mo15  1  3.69092000  5.42622000  1.82534000  1
