# generated using pymatgen
data_Mo
_symmetry_space_group_name_H-M   'P 1'
_cell_length_a   7.27806742
_cell_length_b   7.27806742
_cell_length_c   3.63903379
_cell_angle_alpha   90.00000000
_cell_angle_beta   90.00000000
_cell_angle_gamma   90.00000000
_symmetry_Int_Tables_number   1
_chemical_formula_structural   Mo
_chemical_formula_sum   Mo16
_cell_volume   192.76058556
_cell_formula_units_Z   16
loop_
 _symmetry_equiv_pos_site_id
 _symmetry_equiv_pos_as_xyz
  1  'x, y, z'
loop_
 _atom_site_type_symbol
 _atom_site_label
 _atom_site_symmetry_multiplicity
 _atom_site_fract_x
 _atom_site_fract_y
 _atom_site_fract_z
 _atom_site_occupancy
  Mo  Mo0  1  -0.01282660  7.27903000  3.65670000  1
  Mo  Mo1  1  1.79628000  1.79963000  -0.00270045  1
  Mo  Mo2  1  1.81898000  7.27435000  1.83215000  1
  Mo  Mo3  1  7.26846000  1.82281000  1.79779000  1
  Mo  Mo4  1  3.61581000  7.26389000  0.00502819  1
  Mo  Mo5  1  5.48149000  1.81633000  0.00360488  1
  Mo  Mo6  1  5.42924000  0.03031160  1.80207000  1
  Mo  Mo7  1  3.66252000  1.82035000  1.82246000  1
  Mo  Mo8  1  7.28730000  3.64250000  3.65172000  1
  Mo  Mo9  1  1.82546000  5.44853000  3.63908000  1
  Mo  Mo10  1  1.82878000  3.64278000  1.84031000  1
  Mo  Mo11  1  0.00184214  5.45331000  1.80831000  1
  Mo  Mo12  1  3.64124000  3.65125000  3.63153000  1
  Mo  Mo13  1  5.48641000  5.46387000  3.62851000  1
  Mo  Mo14  1  5.44594000  3.63574000  1.82350000  1
  Mo  Mo15  1  3.64707000  5.45739000  1.81099000  1
