# generated using pymatgen
data_Mo
_symmetry_space_group_name_H-M   'P 1'
_cell_length_a   7.28500180
_cell_length_b   7.28500180
_cell_length_c   3.64250088
_cell_angle_alpha   90.00000000
_cell_angle_beta   90.00000000
_cell_angle_gamma   90.00000000
_symmetry_Int_Tables_number   1
_chemical_formula_structural   Mo
_chemical_formula_sum   Mo16
_cell_volume   193.31207935
_cell_formula_units_Z   16
loop_
 _symmetry_equiv_pos_site_id
 _symmetry_equiv_pos_as_xyz
  1  'x, y, z'
loop_
 _atom_site_type_symbol
 _atom_site_label
 _atom_site_symmetry_multiplicity
 _atom_site_fract_x
 _atom_site_fract_y
 _atom_site_fract_z
 _atom_site_occupancy
  Mo  Mo0  1  7.26359000  0.06009870  0.01717030  1
  Mo  Mo1  1  1.82763000  1.79725000  3.57978000  1
  Mo  Mo2  1  1.84003000  0.08391110  1.87433000  1
  Mo  Mo3  1  0.01197500  1.81674000  1.82162000  1
  Mo  Mo4  1  3.65373000  7.26769000  -0.05238110  1
  Mo  Mo5  1  5.47989000  1.80907000  3.57912000  1
  Mo  Mo6  1  5.46331000  -0.02766000  1.81695000  1
  Mo  Mo7  1  3.72619000  1.74051000  1.83785000  1
  Mo  Mo8  1  -0.04934260  3.60683000  3.66749000  1
  Mo  Mo9  1  1.88591000  5.49107000  3.70989000  1
  Mo  Mo10  1  1.80487000  3.63194000  1.87867000  1
  Mo  Mo11  1  -0.02514860  5.51670000  1.77249000  1
  Mo  Mo12  1  3.69076000  3.60884000  -0.01948630  1
  Mo  Mo13  1  5.34237000  5.36696000  -0.01427820  1
  Mo  Mo14  1  5.40183000  3.67311000  1.84485000  1
  Mo  Mo15  1  3.62141000  5.49593000  1.79794000  1
