# generated using pymatgen
data_Mo
_symmetry_space_group_name_H-M   'P 1'
_cell_length_a   7.28500180
_cell_length_b   7.28500180
_cell_length_c   3.64250088
_cell_angle_alpha   90.00000000
_cell_angle_beta   90.00000000
_cell_angle_gamma   90.00000000
_symmetry_Int_Tables_number   1
_chemical_formula_structural   Mo
_chemical_formula_sum   Mo16
_cell_volume   193.31207935
_cell_formula_units_Z   16
loop_
 _symmetry_equiv_pos_site_id
 _symmetry_equiv_pos_as_xyz
  1  'x, y, z'
loop_
 _atom_site_type_symbol
 _atom_site_label
 _atom_site_symmetry_multiplicity
 _atom_site_fract_x
 _atom_site_fract_y
 _atom_site_fract_z
 _atom_site_occupancy
  Mo  Mo0  1  7.26933000  -0.00348305  -0.00329515  1
  Mo  Mo1  1  1.80632000  1.76914000  3.61018000  1
  Mo  Mo2  1  1.82277000  -0.02667650  1.80500000  1
  Mo  Mo3  1  0.05411190  1.75160000  1.85805000  1
  Mo  Mo4  1  3.56890000  7.20746000  0.01738050  1
  Mo  Mo5  1  5.45722000  1.92385000  3.61171000  1
  Mo  Mo6  1  5.41570000  0.00809007  1.85032000  1
  Mo  Mo7  1  3.61599000  1.94061000  1.86669000  1
  Mo  Mo8  1  0.03510980  3.54312000  3.64730000  1
  Mo  Mo9  1  1.90345000  5.45266000  3.70378000  1
  Mo  Mo10  1  1.69194000  3.64871000  1.77011000  1
  Mo  Mo11  1  0.05203330  5.49345000  1.70609000  1
  Mo  Mo12  1  3.60358000  3.66533000  0.01645530  1
  Mo  Mo13  1  5.47016000  5.41878000  0.01929960  1
  Mo  Mo14  1  5.55368000  3.72616000  1.83810000  1
  Mo  Mo15  1  3.61870000  5.42020000  1.79482000  1
