# generated using pymatgen
data_Mo
_symmetry_space_group_name_H-M   'P 1'
_cell_length_a   7.28500180
_cell_length_b   7.28500180
_cell_length_c   3.64250088
_cell_angle_alpha   90.00000000
_cell_angle_beta   90.00000000
_cell_angle_gamma   90.00000000
_symmetry_Int_Tables_number   1
_chemical_formula_structural   Mo
_chemical_formula_sum   Mo16
_cell_volume   193.31207935
_cell_formula_units_Z   16
loop_
 _symmetry_equiv_pos_site_id
 _symmetry_equiv_pos_as_xyz
  1  'x, y, z'
loop_
 _atom_site_type_symbol
 _atom_site_label
 _atom_site_symmetry_multiplicity
 _atom_site_fract_x
 _atom_site_fract_y
 _atom_site_fract_z
 _atom_site_occupancy
  Mo  Mo0  1  7.27846000  0.02147490  0.01715120  1
  Mo  Mo1  1  1.84132000  1.83551000  3.60485000  1
  Mo  Mo2  1  1.85268000  -0.06368720  1.80726000  1
  Mo  Mo3  1  0.00371078  1.76272000  1.76385000  1
  Mo  Mo4  1  3.71849000  7.30300000  -0.01060410  1
  Mo  Mo5  1  5.39924000  1.81933000  3.75024000  1
  Mo  Mo6  1  5.44003000  0.00015004  1.81255000  1
  Mo  Mo7  1  3.61394000  1.80275000  1.76300000  1
  Mo  Mo8  1  0.07815940  3.62540000  3.65773000  1
  Mo  Mo9  1  1.68119000  5.47212000  3.57940000  1
  Mo  Mo10  1  1.77353000  3.63980000  1.83391000  1
  Mo  Mo11  1  -0.00492008  5.54741000  1.83359000  1
  Mo  Mo12  1  3.61193000  3.71925000  0.04278560  1
  Mo  Mo13  1  5.49265000  5.45449000  -0.01864270  1
  Mo  Mo14  1  5.53143000  3.57815000  1.83129000  1
  Mo  Mo15  1  3.62716000  5.42113000  1.84364000  1
