# generated using pymatgen
data_Mo
_symmetry_space_group_name_H-M   'P 1'
_cell_length_a   7.28500180
_cell_length_b   7.28500180
_cell_length_c   3.64250088
_cell_angle_alpha   90.00000000
_cell_angle_beta   90.00000000
_cell_angle_gamma   90.00000000
_symmetry_Int_Tables_number   1
_chemical_formula_structural   Mo
_chemical_formula_sum   Mo16
_cell_volume   193.31207935
_cell_formula_units_Z   16
loop_
 _symmetry_equiv_pos_site_id
 _symmetry_equiv_pos_as_xyz
  1  'x, y, z'
loop_
 _atom_site_type_symbol
 _atom_site_label
 _atom_site_symmetry_multiplicity
 _atom_site_fract_x
 _atom_site_fract_y
 _atom_site_fract_z
 _atom_site_occupancy
  Mo  Mo0  1  7.29213000  0.00339673  -0.01596850  1
  Mo  Mo1  1  1.84016000  1.80665000  3.71963000  1
  Mo  Mo2  1  1.92047000  0.05189590  1.82604000  1
  Mo  Mo3  1  -0.06289390  1.83848000  1.83927000  1
  Mo  Mo4  1  3.68931000  7.28238000  0.02080770  1
  Mo  Mo5  1  5.48462000  1.79341000  3.64050000  1
  Mo  Mo6  1  5.42620000  -0.08020900  1.73167000  1
  Mo  Mo7  1  3.65277000  1.82504000  1.74520000  1
  Mo  Mo8  1  -0.03654020  3.68982000  3.63713000  1
  Mo  Mo9  1  1.82622000  5.56228000  3.64757000  1
  Mo  Mo10  1  1.87454000  3.59641000  1.82984000  1
  Mo  Mo11  1  -0.02095070  5.49257000  1.87244000  1
  Mo  Mo12  1  3.58729000  3.60805000  0.00103622  1
  Mo  Mo13  1  5.42658000  5.47232000  -0.03828680  1
  Mo  Mo14  1  5.42189000  3.59686000  1.77684000  1
  Mo  Mo15  1  3.61721000  5.39964000  1.87829000  1
