# generated using pymatgen
data_Mo
_symmetry_space_group_name_H-M   'P 1'
_cell_length_a   7.28500180
_cell_length_b   7.28500180
_cell_length_c   3.64250088
_cell_angle_alpha   90.00000000
_cell_angle_beta   90.00000000
_cell_angle_gamma   90.00000000
_symmetry_Int_Tables_number   1
_chemical_formula_structural   Mo
_chemical_formula_sum   Mo16
_cell_volume   193.31207935
_cell_formula_units_Z   16
loop_
 _symmetry_equiv_pos_site_id
 _symmetry_equiv_pos_as_xyz
  1  'x, y, z'
loop_
 _atom_site_type_symbol
 _atom_site_label
 _atom_site_symmetry_multiplicity
 _atom_site_fract_x
 _atom_site_fract_y
 _atom_site_fract_z
 _atom_site_occupancy
  Mo  Mo0  1  7.41645000  0.01521080  -0.04019800  1
  Mo  Mo1  1  1.74675000  1.83874000  3.68214000  1
  Mo  Mo2  1  1.71101000  0.06986110  1.80729000  1
  Mo  Mo3  1  -0.01881290  1.89585000  1.87329000  1
  Mo  Mo4  1  3.58903000  7.24927000  0.00840405  1
  Mo  Mo5  1  5.51888000  1.78030000  3.61783000  1
  Mo  Mo6  1  5.52184000  -0.07342300  1.86228000  1
  Mo  Mo7  1  3.68325000  1.77102000  1.83888000  1
  Mo  Mo8  1  -0.06243480  3.70708000  3.60150000  1
  Mo  Mo9  1  1.88648000  5.45433000  3.62679000  1
  Mo  Mo10  1  1.78101000  3.64087000  1.77238000  1
  Mo  Mo11  1  0.07071270  5.31892000  1.87240000  1
  Mo  Mo12  1  3.61544000  3.63384000  -0.00327849  1
  Mo  Mo13  1  5.40104000  5.49600000  -0.02545040  1
  Mo  Mo14  1  5.44145000  3.66549000  1.81497000  1
  Mo  Mo15  1  3.63691000  5.47564000  1.80277000  1
