# generated using pymatgen
data_Mo
_symmetry_space_group_name_H-M   'P 1'
_cell_length_a   7.28500180
_cell_length_b   7.28500180
_cell_length_c   3.64250088
_cell_angle_alpha   90.00000000
_cell_angle_beta   90.00000000
_cell_angle_gamma   90.00000000
_symmetry_Int_Tables_number   1
_chemical_formula_structural   Mo
_chemical_formula_sum   Mo16
_cell_volume   193.31207935
_cell_formula_units_Z   16
loop_
 _symmetry_equiv_pos_site_id
 _symmetry_equiv_pos_as_xyz
  1  'x, y, z'
loop_
 _atom_site_type_symbol
 _atom_site_label
 _atom_site_symmetry_multiplicity
 _atom_site_fract_x
 _atom_site_fract_y
 _atom_site_fract_z
 _atom_site_occupancy
  Mo  Mo0  1  7.31298000  0.01935800  -0.05260630  1
  Mo  Mo1  1  1.83999000  1.86135000  3.62612000  1
  Mo  Mo2  1  1.85140000  0.08491840  1.80791000  1
  Mo  Mo3  1  -0.05981310  1.80485000  1.86848000  1
  Mo  Mo4  1  3.65414000  7.20011000  0.01259620  1
  Mo  Mo5  1  5.49559000  1.75038000  3.62657000  1
  Mo  Mo6  1  5.47573000  -0.05997730  1.84301000  1
  Mo  Mo7  1  3.63650000  1.83844000  1.88075000  1
  Mo  Mo8  1  0.00652398  3.64545000  3.64352000  1
  Mo  Mo9  1  1.89421000  5.52370000  3.64512000  1
  Mo  Mo10  1  1.75393000  3.68064000  1.76354000  1
  Mo  Mo11  1  -0.03714820  5.43350000  1.75350000  1
  Mo  Mo12  1  3.66965000  3.57959000  -0.01572050  1
  Mo  Mo13  1  5.40478000  5.47925000  0.08271680  1
  Mo  Mo14  1  5.48439000  3.67002000  1.81639000  1
  Mo  Mo15  1  3.55614000  5.42741000  1.81010000  1
