# generated using pymatgen
data_Mo
_symmetry_space_group_name_H-M   'P 1'
_cell_length_a   7.28500180
_cell_length_b   7.28500180
_cell_length_c   3.64250088
_cell_angle_alpha   90.00000000
_cell_angle_beta   90.00000000
_cell_angle_gamma   90.00000000
_symmetry_Int_Tables_number   1
_chemical_formula_structural   Mo
_chemical_formula_sum   Mo16
_cell_volume   193.31207935
_cell_formula_units_Z   16
loop_
 _symmetry_equiv_pos_site_id
 _symmetry_equiv_pos_as_xyz
  1  'x, y, z'
loop_
 _atom_site_type_symbol
 _atom_site_label
 _atom_site_symmetry_multiplicity
 _atom_site_fract_x
 _atom_site_fract_y
 _atom_site_fract_z
 _atom_site_occupancy
  Mo  Mo0  1  7.35255000  -0.06136170  0.01304860  1
  Mo  Mo1  1  1.79925000  1.87339000  3.55725000  1
  Mo  Mo2  1  1.85163000  -0.02620580  1.86512000  1
  Mo  Mo3  1  0.08214110  1.91626000  1.74031000  1
  Mo  Mo4  1  3.50472000  7.27283000  0.05085780  1
  Mo  Mo5  1  5.50821000  1.72530000  3.65605000  1
  Mo  Mo6  1  5.52445000  0.04940370  1.82988000  1
  Mo  Mo7  1  3.60372000  1.80357000  1.86865000  1
  Mo  Mo8  1  -0.05511230  3.56434000  3.56534000  1
  Mo  Mo9  1  1.86152000  5.41287000  3.58460000  1
  Mo  Mo10  1  1.84878000  3.65067000  1.79077000  1
  Mo  Mo11  1  -0.05559060  5.38084000  1.81417000  1
  Mo  Mo12  1  3.61359000  3.67036000  -0.01046300  1
  Mo  Mo13  1  5.40953000  5.54092000  0.06110630  1
  Mo  Mo14  1  5.39910000  3.62741000  1.81676000  1
  Mo  Mo15  1  3.69052000  5.53840000  1.90856000  1
