# generated using pymatgen
data_Mo
_symmetry_space_group_name_H-M   'P 1'
_cell_length_a   7.27806742
_cell_length_b   7.27806742
_cell_length_c   3.63903379
_cell_angle_alpha   90.00000000
_cell_angle_beta   90.00000000
_cell_angle_gamma   90.00000000
_symmetry_Int_Tables_number   1
_chemical_formula_structural   Mo
_chemical_formula_sum   Mo16
_cell_volume   192.76058556
_cell_formula_units_Z   16
loop_
 _symmetry_equiv_pos_site_id
 _symmetry_equiv_pos_as_xyz
  1  'x, y, z'
loop_
 _atom_site_type_symbol
 _atom_site_label
 _atom_site_symmetry_multiplicity
 _atom_site_fract_x
 _atom_site_fract_y
 _atom_site_fract_z
 _atom_site_occupancy
  Mo  Mo0  1  0.00079906  7.27452000  3.65412000  1
  Mo  Mo1  1  1.81601000  1.81681000  -0.00248900  1
  Mo  Mo2  1  1.80858000  7.27194000  1.82787000  1
  Mo  Mo3  1  7.27505000  1.82526000  1.82251000  1
  Mo  Mo4  1  3.62404000  7.29043000  -0.03555730  1
  Mo  Mo5  1  5.48020000  1.81863000  -0.00070417  1
  Mo  Mo6  1  5.44338000  -0.01637840  1.79860000  1
  Mo  Mo7  1  3.63522000  1.82320000  1.82992000  1
  Mo  Mo8  1  7.30457000  3.64115000  3.62981000  1
  Mo  Mo9  1  1.81182000  5.46202000  3.64313000  1
  Mo  Mo10  1  1.81852000  3.62090000  1.81730000  1
  Mo  Mo11  1  -0.01037400  5.46184000  1.81347000  1
  Mo  Mo12  1  3.62552000  3.62543000  3.63382000  1
  Mo  Mo13  1  5.47634000  5.46936000  3.64199000  1
  Mo  Mo14  1  5.45519000  3.64277000  1.84504000  1
  Mo  Mo15  1  3.65914000  5.47418000  1.83220000  1
