# generated using pymatgen
data_Mo
_symmetry_space_group_name_H-M   'P 1'
_cell_length_a   7.28500180
_cell_length_b   7.28500180
_cell_length_c   3.64250088
_cell_angle_alpha   90.00000000
_cell_angle_beta   90.00000000
_cell_angle_gamma   90.00000000
_symmetry_Int_Tables_number   1
_chemical_formula_structural   Mo
_chemical_formula_sum   Mo16
_cell_volume   193.31207935
_cell_formula_units_Z   16
loop_
 _symmetry_equiv_pos_site_id
 _symmetry_equiv_pos_as_xyz
  1  'x, y, z'
loop_
 _atom_site_type_symbol
 _atom_site_label
 _atom_site_symmetry_multiplicity
 _atom_site_fract_x
 _atom_site_fract_y
 _atom_site_fract_z
 _atom_site_occupancy
  Mo  Mo0  1  7.33609000  0.03514950  0.02566570  1
  Mo  Mo1  1  1.75182000  1.81978000  3.58782000  1
  Mo  Mo2  1  1.91053000  0.10709700  1.72758000  1
  Mo  Mo3  1  -0.16512800  1.80398000  1.86068000  1
  Mo  Mo4  1  3.68317000  7.24629000  0.01074170  1
  Mo  Mo5  1  5.54787000  1.79991000  3.64845000  1
  Mo  Mo6  1  5.48183000  -0.07458140  1.91401000  1
  Mo  Mo7  1  3.68461000  1.77047000  1.87282000  1
  Mo  Mo8  1  -0.08369160  3.61006000  3.65219000  1
  Mo  Mo9  1  1.78534000  5.50279000  3.62030000  1
  Mo  Mo10  1  1.78753000  3.62718000  1.74401000  1
  Mo  Mo11  1  -0.04635830  5.50440000  1.81639000  1
  Mo  Mo12  1  3.72446000  3.65306000  -0.05738200  1
  Mo  Mo13  1  5.48946000  5.45278000  0.05192860  1
  Mo  Mo14  1  5.45817000  3.66397000  1.89502000  1
  Mo  Mo15  1  3.59330000  5.41667000  1.74178000  1
