# generated using pymatgen
data_Mo
_symmetry_space_group_name_H-M   'P 1'
_cell_length_a   7.28500180
_cell_length_b   7.28500180
_cell_length_c   3.64250088
_cell_angle_alpha   90.00000000
_cell_angle_beta   90.00000000
_cell_angle_gamma   90.00000000
_symmetry_Int_Tables_number   1
_chemical_formula_structural   Mo
_chemical_formula_sum   Mo16
_cell_volume   193.31207935
_cell_formula_units_Z   16
loop_
 _symmetry_equiv_pos_site_id
 _symmetry_equiv_pos_as_xyz
  1  'x, y, z'
loop_
 _atom_site_type_symbol
 _atom_site_label
 _atom_site_symmetry_multiplicity
 _atom_site_fract_x
 _atom_site_fract_y
 _atom_site_fract_z
 _atom_site_occupancy
  Mo  Mo0  1  7.29661000  0.04976870  -0.02101560  1
  Mo  Mo1  1  1.83975000  1.78723000  3.66972000  1
  Mo  Mo2  1  1.86307000  -0.00774039  1.86494000  1
  Mo  Mo3  1  0.10279900  1.78349000  1.83016000  1
  Mo  Mo4  1  3.57191000  7.20835000  -0.05935600  1
  Mo  Mo5  1  5.52798000  1.80774000  3.66489000  1
  Mo  Mo6  1  5.38555000  0.00599644  1.77883000  1
  Mo  Mo7  1  3.63670000  1.92345000  1.78331000  1
  Mo  Mo8  1  -0.05866030  3.65874000  3.60169000  1
  Mo  Mo9  1  1.87366000  5.49540000  3.67958000  1
  Mo  Mo10  1  1.76607000  3.65641000  1.87762000  1
  Mo  Mo11  1  0.01623940  5.44611000  1.83542000  1
  Mo  Mo12  1  3.59084000  3.63966000  0.00648353  1
  Mo  Mo13  1  5.39039000  5.41437000  -0.04249090  1
  Mo  Mo14  1  5.50867000  3.64272000  1.77023000  1
  Mo  Mo15  1  3.62744000  5.42729000  1.87198000  1
