# generated using pymatgen
data_Mo
_symmetry_space_group_name_H-M   'P 1'
_cell_length_a   7.28500180
_cell_length_b   7.28500180
_cell_length_c   3.64250088
_cell_angle_alpha   90.00000000
_cell_angle_beta   90.00000000
_cell_angle_gamma   90.00000000
_symmetry_Int_Tables_number   1
_chemical_formula_structural   Mo
_chemical_formula_sum   Mo16
_cell_volume   193.31207935
_cell_formula_units_Z   16
loop_
 _symmetry_equiv_pos_site_id
 _symmetry_equiv_pos_as_xyz
  1  'x, y, z'
loop_
 _atom_site_type_symbol
 _atom_site_label
 _atom_site_symmetry_multiplicity
 _atom_site_fract_x
 _atom_site_fract_y
 _atom_site_fract_z
 _atom_site_occupancy
  Mo  Mo0  1  7.36184000  0.02139050  0.04075810  1
  Mo  Mo1  1  1.78402000  1.82736000  3.63448000  1
  Mo  Mo2  1  1.67926000  0.01245980  1.81765000  1
  Mo  Mo3  1  -0.04595950  1.83922000  1.80426000  1
  Mo  Mo4  1  3.52584000  7.23223000  0.00861174  1
  Mo  Mo5  1  5.50770000  1.77501000  3.64301000  1
  Mo  Mo6  1  5.47640000  -0.01641520  1.73789000  1
  Mo  Mo7  1  3.58726000  1.78462000  1.82792000  1
  Mo  Mo8  1  0.01290780  3.67278000  3.67270000  1
  Mo  Mo9  1  1.89947000  5.47072000  3.61726000  1
  Mo  Mo10  1  1.87195000  3.68092000  1.90476000  1
  Mo  Mo11  1  0.06875150  5.42919000  1.78971000  1
  Mo  Mo12  1  3.65175000  3.60726000  -0.05607230  1
  Mo  Mo13  1  5.47487000  5.48009000  -0.01656480  1
  Mo  Mo14  1  5.37746000  3.63388000  1.80608000  1
  Mo  Mo15  1  3.70548000  5.48829000  1.87955000  1
