# generated using pymatgen
data_Mo
_symmetry_space_group_name_H-M   'P 1'
_cell_length_a   7.28500180
_cell_length_b   7.28500180
_cell_length_c   3.64250088
_cell_angle_alpha   90.00000000
_cell_angle_beta   90.00000000
_cell_angle_gamma   90.00000000
_symmetry_Int_Tables_number   1
_chemical_formula_structural   Mo
_chemical_formula_sum   Mo16
_cell_volume   193.31207935
_cell_formula_units_Z   16
loop_
 _symmetry_equiv_pos_site_id
 _symmetry_equiv_pos_as_xyz
  1  'x, y, z'
loop_
 _atom_site_type_symbol
 _atom_site_label
 _atom_site_symmetry_multiplicity
 _atom_site_fract_x
 _atom_site_fract_y
 _atom_site_fract_z
 _atom_site_occupancy
  Mo  Mo0  1  7.22036000  -0.02203220  -0.01878260  1
  Mo  Mo1  1  1.89120000  1.76344000  3.60760000  1
  Mo  Mo2  1  1.81000000  -0.01865290  1.73647000  1
  Mo  Mo3  1  0.05113330  1.72427000  1.84162000  1
  Mo  Mo4  1  3.59545000  7.24142000  -0.03028880  1
  Mo  Mo5  1  5.43749000  1.84055000  3.62457000  1
  Mo  Mo6  1  5.41204000  0.03033310  1.86664000  1
  Mo  Mo7  1  3.64287000  1.92989000  1.91224000  1
  Mo  Mo8  1  0.05882660  3.60465000  3.63183000  1
  Mo  Mo9  1  1.77307000  5.45550000  3.65960000  1
  Mo  Mo10  1  1.70991000  3.67950000  1.76632000  1
  Mo  Mo11  1  0.01588470  5.48557000  1.78678000  1
  Mo  Mo12  1  3.56392000  3.61628000  0.02592630  1
  Mo  Mo13  1  5.57592000  5.47200000  0.05484300  1
  Mo  Mo14  1  5.56601000  3.70593000  1.88346000  1
  Mo  Mo15  1  3.61492000  5.43036000  1.76317000  1
