# generated using pymatgen
data_Mo
_symmetry_space_group_name_H-M   'P 1'
_cell_length_a   7.28500180
_cell_length_b   7.28500180
_cell_length_c   3.64250088
_cell_angle_alpha   90.00000000
_cell_angle_beta   90.00000000
_cell_angle_gamma   90.00000000
_symmetry_Int_Tables_number   1
_chemical_formula_structural   Mo
_chemical_formula_sum   Mo16
_cell_volume   193.31207935
_cell_formula_units_Z   16
loop_
 _symmetry_equiv_pos_site_id
 _symmetry_equiv_pos_as_xyz
  1  'x, y, z'
loop_
 _atom_site_type_symbol
 _atom_site_label
 _atom_site_symmetry_multiplicity
 _atom_site_fract_x
 _atom_site_fract_y
 _atom_site_fract_z
 _atom_site_occupancy
  Mo  Mo0  1  7.28516000  0.13562100  0.01786690  1
  Mo  Mo1  1  1.91355000  1.76815000  3.59103000  1
  Mo  Mo2  1  1.83720000  0.02022740  1.87677000  1
  Mo  Mo3  1  -0.10593900  1.74665000  1.85383000  1
  Mo  Mo4  1  3.64191000  7.20209000  -0.02536640  1
  Mo  Mo5  1  5.33685000  1.87553000  3.62189000  1
  Mo  Mo6  1  5.35262000  -0.04231370  1.75701000  1
  Mo  Mo7  1  3.67673000  1.88468000  1.79285000  1
  Mo  Mo8  1  0.07360290  3.65542000  3.70131000  1
  Mo  Mo9  1  1.84288000  5.48816000  3.65213000  1
  Mo  Mo10  1  1.75856000  3.65799000  1.89092000  1
  Mo  Mo11  1  0.06881270  5.54744000  1.77980000  1
  Mo  Mo12  1  3.57937000  3.64150000  -0.01136890  1
  Mo  Mo13  1  5.50298000  5.38212000  0.00123183  1
  Mo  Mo14  1  5.49772000  3.57867000  1.84279000  1
  Mo  Mo15  1  3.67699000  5.39708000  1.76930000  1
