# generated using pymatgen
data_Mo
_symmetry_space_group_name_H-M   'P 1'
_cell_length_a   7.28500180
_cell_length_b   7.28500180
_cell_length_c   3.64250088
_cell_angle_alpha   90.00000000
_cell_angle_beta   90.00000000
_cell_angle_gamma   90.00000000
_symmetry_Int_Tables_number   1
_chemical_formula_structural   Mo
_chemical_formula_sum   Mo16
_cell_volume   193.31207935
_cell_formula_units_Z   16
loop_
 _symmetry_equiv_pos_site_id
 _symmetry_equiv_pos_as_xyz
  1  'x, y, z'
loop_
 _atom_site_type_symbol
 _atom_site_label
 _atom_site_symmetry_multiplicity
 _atom_site_fract_x
 _atom_site_fract_y
 _atom_site_fract_z
 _atom_site_occupancy
  Mo  Mo0  1  7.37740000  -0.06640770  -0.03129970  1
  Mo  Mo1  1  1.86931000  1.90140000  3.67736000  1
  Mo  Mo2  1  1.74481000  0.06093150  1.82034000  1
  Mo  Mo3  1  -0.01036750  1.83487000  1.86838000  1
  Mo  Mo4  1  3.54034000  7.26455000  -0.01173890  1
  Mo  Mo5  1  5.45623000  1.71631000  3.59158000  1
  Mo  Mo6  1  5.47190000  -0.07650480  1.77682000  1
  Mo  Mo7  1  3.67841000  1.80001000  1.79497000  1
  Mo  Mo8  1  -0.03650260  3.77740000  3.64478000  1
  Mo  Mo9  1  1.87413000  5.44069000  3.74786000  1
  Mo  Mo10  1  1.87813000  3.66839000  1.81949000  1
  Mo  Mo11  1  0.06402740  5.43188000  1.83029000  1
  Mo  Mo12  1  3.58115000  3.53194000  0.03740940  1
  Mo  Mo13  1  5.43511000  5.56280000  -0.03836460  1
  Mo  Mo14  1  5.42939000  3.63378000  1.79430000  1
  Mo  Mo15  1  3.58553000  5.45697000  1.78982000  1
