# generated using pymatgen
data_Mo
_symmetry_space_group_name_H-M   'P 1'
_cell_length_a   7.28500180
_cell_length_b   7.28500180
_cell_length_c   3.64250088
_cell_angle_alpha   90.00000000
_cell_angle_beta   90.00000000
_cell_angle_gamma   90.00000000
_symmetry_Int_Tables_number   1
_chemical_formula_structural   Mo
_chemical_formula_sum   Mo16
_cell_volume   193.31207935
_cell_formula_units_Z   16
loop_
 _symmetry_equiv_pos_site_id
 _symmetry_equiv_pos_as_xyz
  1  'x, y, z'
loop_
 _atom_site_type_symbol
 _atom_site_label
 _atom_site_symmetry_multiplicity
 _atom_site_fract_x
 _atom_site_fract_y
 _atom_site_fract_z
 _atom_site_occupancy
  Mo  Mo0  1  7.30770000  -0.00942464  -0.05037430  1
  Mo  Mo1  1  1.75616000  1.75654000  3.65277000  1
  Mo  Mo2  1  1.86436000  -0.08097870  1.80038000  1
  Mo  Mo3  1  0.00540642  1.73524000  1.79541000  1
  Mo  Mo4  1  3.61873000  7.29421000  0.03819340  1
  Mo  Mo5  1  5.47735000  1.91718000  3.72339000  1
  Mo  Mo6  1  5.39958000  0.00518493  1.82821000  1
  Mo  Mo7  1  3.55160000  1.90477000  1.79484000  1
  Mo  Mo8  1  0.08068360  3.61318000  3.62378000  1
  Mo  Mo9  1  1.72155000  5.45773000  3.51072000  1
  Mo  Mo10  1  1.80305000  3.57331000  1.83155000  1
  Mo  Mo11  1  0.01216480  5.49036000  1.83107000  1
  Mo  Mo12  1  3.62952000  3.77782000  0.00580849  1
  Mo  Mo13  1  5.50556000  5.44605000  0.00716614  1
  Mo  Mo14  1  5.59185000  3.66226000  1.84699000  1
  Mo  Mo15  1  3.61374000  5.39558000  1.87210000  1
