# generated using pymatgen
data_Mo
_symmetry_space_group_name_H-M   'P 1'
_cell_length_a   7.28500180
_cell_length_b   7.28500180
_cell_length_c   3.64250088
_cell_angle_alpha   90.00000000
_cell_angle_beta   90.00000000
_cell_angle_gamma   90.00000000
_symmetry_Int_Tables_number   1
_chemical_formula_structural   Mo
_chemical_formula_sum   Mo16
_cell_volume   193.31207935
_cell_formula_units_Z   16
loop_
 _symmetry_equiv_pos_site_id
 _symmetry_equiv_pos_as_xyz
  1  'x, y, z'
loop_
 _atom_site_type_symbol
 _atom_site_label
 _atom_site_symmetry_multiplicity
 _atom_site_fract_x
 _atom_site_fract_y
 _atom_site_fract_z
 _atom_site_occupancy
  Mo  Mo0  1  7.25322000  -0.08657790  -0.03331960  1
  Mo  Mo1  1  1.83369000  1.83475000  3.56030000  1
  Mo  Mo2  1  1.80463000  0.04123780  1.77679000  1
  Mo  Mo3  1  -0.08034040  1.70934000  1.83805000  1
  Mo  Mo4  1  3.65326000  7.33696000  0.01639540  1
  Mo  Mo5  1  5.47817000  1.81301000  3.66432000  1
  Mo  Mo6  1  5.42529000  0.02300050  1.91680000  1
  Mo  Mo7  1  3.73977000  1.90917000  1.85870000  1
  Mo  Mo8  1  -0.10121900  3.68444000  3.58918000  1
  Mo  Mo9  1  1.84673000  5.36259000  3.64112000  1
  Mo  Mo10  1  1.80842000  3.59753000  1.77248000  1
  Mo  Mo11  1  0.02578730  5.42775000  1.79361000  1
  Mo  Mo12  1  3.63193000  3.56727000  0.01207270  1
  Mo  Mo13  1  5.49315000  5.54022000  0.03779030  1
  Mo  Mo14  1  5.47718000  3.66234000  1.86849000  1
  Mo  Mo15  1  3.64932000  5.51596000  1.79923000  1
