# generated using pymatgen
data_Mo
_symmetry_space_group_name_H-M   'P 1'
_cell_length_a   7.28500180
_cell_length_b   7.28500180
_cell_length_c   3.64250088
_cell_angle_alpha   90.00000000
_cell_angle_beta   90.00000000
_cell_angle_gamma   90.00000000
_symmetry_Int_Tables_number   1
_chemical_formula_structural   Mo
_chemical_formula_sum   Mo16
_cell_volume   193.31207935
_cell_formula_units_Z   16
loop_
 _symmetry_equiv_pos_site_id
 _symmetry_equiv_pos_as_xyz
  1  'x, y, z'
loop_
 _atom_site_type_symbol
 _atom_site_label
 _atom_site_symmetry_multiplicity
 _atom_site_fract_x
 _atom_site_fract_y
 _atom_site_fract_z
 _atom_site_occupancy
  Mo  Mo0  1  7.30538000  -0.00093348  0.01442580  1
  Mo  Mo1  1  1.80912000  1.76078000  3.63061000  1
  Mo  Mo2  1  1.99944000  0.00773650  1.83422000  1
  Mo  Mo3  1  -0.04350210  1.75099000  1.85166000  1
  Mo  Mo4  1  3.69440000  7.33976000  0.00501673  1
  Mo  Mo5  1  5.41617000  1.89288000  3.59971000  1
  Mo  Mo6  1  5.44823000  -0.07932160  1.84117000  1
  Mo  Mo7  1  3.70202000  1.88454000  1.81032000  1
  Mo  Mo8  1  -0.01325210  3.69004000  3.66548000  1
  Mo  Mo9  1  1.78658000  5.44591000  3.61514000  1
  Mo  Mo10  1  1.75139000  3.62906000  1.88367000  1
  Mo  Mo11  1  0.00559472  5.47428000  1.80878000  1
  Mo  Mo12  1  3.55775000  3.64271000  0.07173760  1
  Mo  Mo13  1  5.46290000  5.47022000  -0.03507170  1
  Mo  Mo14  1  5.47172000  3.57360000  1.82632000  1
  Mo  Mo15  1  3.58506000  5.45675000  1.68881000  1
