# generated using pymatgen
data_Mo
_symmetry_space_group_name_H-M   'P 1'
_cell_length_a   7.27806742
_cell_length_b   7.27806742
_cell_length_c   3.63903379
_cell_angle_alpha   90.00000000
_cell_angle_beta   90.00000000
_cell_angle_gamma   90.00000000
_symmetry_Int_Tables_number   1
_chemical_formula_structural   Mo
_chemical_formula_sum   Mo16
_cell_volume   192.76058556
_cell_formula_units_Z   16
loop_
 _symmetry_equiv_pos_site_id
 _symmetry_equiv_pos_as_xyz
  1  'x, y, z'
loop_
 _atom_site_type_symbol
 _atom_site_label
 _atom_site_symmetry_multiplicity
 _atom_site_fract_x
 _atom_site_fract_y
 _atom_site_fract_z
 _atom_site_occupancy
  Mo  Mo0  1  0.02152380  7.29842000  3.63322000  1
  Mo  Mo1  1  1.80002000  1.80342000  -0.01481040  1
  Mo  Mo2  1  1.83050000  7.27673000  1.81689000  1
  Mo  Mo3  1  7.27396000  1.81448000  1.82007000  1
  Mo  Mo4  1  3.64133000  7.28704000  0.03141690  1
  Mo  Mo5  1  5.46883000  1.81493000  -0.01161570  1
  Mo  Mo6  1  5.47259000  -0.00698494  1.81305000  1
  Mo  Mo7  1  3.64336000  1.82188000  1.81415000  1
  Mo  Mo8  1  7.27330000  3.62248000  3.64880000  1
  Mo  Mo9  1  1.80580000  5.46203000  3.63338000  1
  Mo  Mo10  1  1.82289000  3.67305000  1.84660000  1
  Mo  Mo11  1  0.00233825  5.45074000  1.82258000  1
  Mo  Mo12  1  3.62276000  3.61634000  3.62953000  1
  Mo  Mo13  1  5.45075000  5.47096000  3.65150000  1
  Mo  Mo14  1  5.45869000  3.64309000  1.80615000  1
  Mo  Mo15  1  3.63537000  5.45346000  1.81013000  1
