# generated using pymatgen
data_Mo
_symmetry_space_group_name_H-M   'P 1'
_cell_length_a   7.28500180
_cell_length_b   7.28500180
_cell_length_c   3.64250088
_cell_angle_alpha   90.00000000
_cell_angle_beta   90.00000000
_cell_angle_gamma   90.00000000
_symmetry_Int_Tables_number   1
_chemical_formula_structural   Mo
_chemical_formula_sum   Mo16
_cell_volume   193.31207935
_cell_formula_units_Z   16
loop_
 _symmetry_equiv_pos_site_id
 _symmetry_equiv_pos_as_xyz
  1  'x, y, z'
loop_
 _atom_site_type_symbol
 _atom_site_label
 _atom_site_symmetry_multiplicity
 _atom_site_fract_x
 _atom_site_fract_y
 _atom_site_fract_z
 _atom_site_occupancy
  Mo  Mo0  1  7.29656000  -0.05018070  0.03825250  1
  Mo  Mo1  1  1.78409000  1.84693000  3.66354000  1
  Mo  Mo2  1  1.86061000  -0.01267450  1.77942000  1
  Mo  Mo3  1  -0.11668100  1.82555000  1.75199000  1
  Mo  Mo4  1  3.67676000  7.40659000  0.04030700  1
  Mo  Mo5  1  5.46658000  1.78200000  3.72417000  1
  Mo  Mo6  1  5.52835000  -0.03072030  1.84947000  1
  Mo  Mo7  1  3.68162000  1.86163000  1.82136000  1
  Mo  Mo8  1  -0.04467270  3.60580000  3.63794000  1
  Mo  Mo9  1  1.77865000  5.48831000  3.55672000  1
  Mo  Mo10  1  1.78011000  3.58491000  1.76130000  1
  Mo  Mo11  1  -0.04133820  5.50522000  1.86963000  1
  Mo  Mo12  1  3.72945000  3.62926000  -0.01571220  1
  Mo  Mo13  1  5.46332000  5.47266000  0.00898754  1
  Mo  Mo14  1  5.46298000  3.64116000  1.79998000  1
  Mo  Mo15  1  3.63261000  5.38255000  1.82465000  1
