# generated using pymatgen
data_Mo
_symmetry_space_group_name_H-M   'P 1'
_cell_length_a   7.28500180
_cell_length_b   7.28500180
_cell_length_c   3.64250088
_cell_angle_alpha   90.00000000
_cell_angle_beta   90.00000000
_cell_angle_gamma   90.00000000
_symmetry_Int_Tables_number   1
_chemical_formula_structural   Mo
_chemical_formula_sum   Mo16
_cell_volume   193.31207935
_cell_formula_units_Z   16
loop_
 _symmetry_equiv_pos_site_id
 _symmetry_equiv_pos_as_xyz
  1  'x, y, z'
loop_
 _atom_site_type_symbol
 _atom_site_label
 _atom_site_symmetry_multiplicity
 _atom_site_fract_x
 _atom_site_fract_y
 _atom_site_fract_z
 _atom_site_occupancy
  Mo  Mo0  1  7.27249000  -0.04967640  -0.00591413  1
  Mo  Mo1  1  1.87827000  1.78575000  3.67161000  1
  Mo  Mo2  1  1.89792000  -0.05266970  1.75638000  1
  Mo  Mo3  1  -0.06924130  1.76782000  1.81334000  1
  Mo  Mo4  1  3.76558000  7.32513000  0.07836330  1
  Mo  Mo5  1  5.39179000  1.85082000  3.68430000  1
  Mo  Mo6  1  5.42538000  -0.01783690  1.82474000  1
  Mo  Mo7  1  3.66691000  1.86498000  1.78985000  1
  Mo  Mo8  1  0.03879680  3.63905000  3.58081000  1
  Mo  Mo9  1  1.76466000  5.58770000  3.60601000  1
  Mo  Mo10  1  1.79089000  3.65247000  1.70948000  1
  Mo  Mo11  1  -0.06780000  5.48952000  1.89223000  1
  Mo  Mo12  1  3.64327000  3.66781000  0.04771330  1
  Mo  Mo13  1  5.45041000  5.44461000  -0.01052640  1
  Mo  Mo14  1  5.45392000  3.61666000  1.82552000  1
  Mo  Mo15  1  3.63576000  5.36685000  1.84809000  1
