# generated using pymatgen
data_Mo
_symmetry_space_group_name_H-M   'P 1'
_cell_length_a   7.28500180
_cell_length_b   7.28500180
_cell_length_c   3.64250088
_cell_angle_alpha   90.00000000
_cell_angle_beta   90.00000000
_cell_angle_gamma   90.00000000
_symmetry_Int_Tables_number   1
_chemical_formula_structural   Mo
_chemical_formula_sum   Mo16
_cell_volume   193.31207935
_cell_formula_units_Z   16
loop_
 _symmetry_equiv_pos_site_id
 _symmetry_equiv_pos_as_xyz
  1  'x, y, z'
loop_
 _atom_site_type_symbol
 _atom_site_label
 _atom_site_symmetry_multiplicity
 _atom_site_fract_x
 _atom_site_fract_y
 _atom_site_fract_z
 _atom_site_occupancy
  Mo  Mo0  1  7.31257000  -0.08401550  -0.01095260  1
  Mo  Mo1  1  1.81298000  1.84655000  3.63916000  1
  Mo  Mo2  1  1.83660000  -0.04412640  1.85789000  1
  Mo  Mo3  1  0.07125410  1.88012000  1.94147000  1
  Mo  Mo4  1  3.64412000  7.36361000  -0.03927160  1
  Mo  Mo5  1  5.44753000  1.81112000  3.62500000  1
  Mo  Mo6  1  5.54403000  -0.00709155  1.84121000  1
  Mo  Mo7  1  3.65278000  1.79966000  1.77327000  1
  Mo  Mo8  1  -0.07782960  3.68200000  3.68528000  1
  Mo  Mo9  1  1.86804000  5.36900000  3.65150000  1
  Mo  Mo10  1  1.90776000  3.60511000  1.78438000  1
  Mo  Mo11  1  -0.14359200  5.39421000  1.81260000  1
  Mo  Mo12  1  3.69648000  3.63930000  0.02678260  1
  Mo  Mo13  1  5.30158000  5.53235000  -0.02881120  1
  Mo  Mo14  1  5.40012000  3.61735000  1.83876000  1
  Mo  Mo15  1  3.66457000  5.53384000  1.71374000  1
