# generated using pymatgen
data_Mo
_symmetry_space_group_name_H-M   'P 1'
_cell_length_a   7.28500180
_cell_length_b   7.28500180
_cell_length_c   3.64250088
_cell_angle_alpha   90.00000000
_cell_angle_beta   90.00000000
_cell_angle_gamma   90.00000000
_symmetry_Int_Tables_number   1
_chemical_formula_structural   Mo
_chemical_formula_sum   Mo16
_cell_volume   193.31207935
_cell_formula_units_Z   16
loop_
 _symmetry_equiv_pos_site_id
 _symmetry_equiv_pos_as_xyz
  1  'x, y, z'
loop_
 _atom_site_type_symbol
 _atom_site_label
 _atom_site_symmetry_multiplicity
 _atom_site_fract_x
 _atom_site_fract_y
 _atom_site_fract_z
 _atom_site_occupancy
  Mo  Mo0  1  7.18103000  0.00662243  0.01076560  1
  Mo  Mo1  1  1.87555000  1.77022000  3.57746000  1
  Mo  Mo2  1  1.83616000  0.02892160  1.87454000  1
  Mo  Mo3  1  0.03806480  1.75605000  1.82931000  1
  Mo  Mo4  1  3.68669000  7.25552000  -0.05622050  1
  Mo  Mo5  1  5.42630000  1.81710000  3.66162000  1
  Mo  Mo6  1  5.42221000  0.00928934  1.83843000  1
  Mo  Mo7  1  3.72231000  1.86955000  1.84481000  1
  Mo  Mo8  1  -0.05065390  3.67823000  3.68774000  1
  Mo  Mo9  1  1.77555000  5.46664000  3.61404000  1
  Mo  Mo10  1  1.78560000  3.69583000  1.85857000  1
  Mo  Mo11  1  -0.03065960  5.55843000  1.70952000  1
  Mo  Mo12  1  3.63120000  3.59359000  -0.04163750  1
  Mo  Mo13  1  5.47449000  5.37736000  0.03377900  1
  Mo  Mo14  1  5.45523000  3.62327000  1.84487000  1
  Mo  Mo15  1  3.70992000  5.43237000  1.82441000  1
