# generated using pymatgen
data_Mo
_symmetry_space_group_name_H-M   'P 1'
_cell_length_a   7.28500180
_cell_length_b   7.28500180
_cell_length_c   3.64250088
_cell_angle_alpha   90.00000000
_cell_angle_beta   90.00000000
_cell_angle_gamma   90.00000000
_symmetry_Int_Tables_number   1
_chemical_formula_structural   Mo
_chemical_formula_sum   Mo16
_cell_volume   193.31207935
_cell_formula_units_Z   16
loop_
 _symmetry_equiv_pos_site_id
 _symmetry_equiv_pos_as_xyz
  1  'x, y, z'
loop_
 _atom_site_type_symbol
 _atom_site_label
 _atom_site_symmetry_multiplicity
 _atom_site_fract_x
 _atom_site_fract_y
 _atom_site_fract_z
 _atom_site_occupancy
  Mo  Mo0  1  7.29498000  0.01185720  -0.02183050  1
  Mo  Mo1  1  1.72647000  1.74490000  3.66828000  1
  Mo  Mo2  1  1.83182000  -0.01190580  1.90260000  1
  Mo  Mo3  1  0.02751390  1.74647000  1.89530000  1
  Mo  Mo4  1  3.56787000  7.30873000  0.03355020  1
  Mo  Mo5  1  5.50524000  1.86121000  3.57306000  1
  Mo  Mo6  1  5.49371000  -0.04518080  1.78824000  1
  Mo  Mo7  1  3.64192000  1.87977000  1.78952000  1
  Mo  Mo8  1  0.05541900  3.66575000  3.68941000  1
  Mo  Mo9  1  1.79422000  5.42697000  3.67723000  1
  Mo  Mo10  1  1.80771000  3.62537000  1.88457000  1
  Mo  Mo11  1  -0.02425260  5.51071000  1.76650000  1
  Mo  Mo12  1  3.61873000  3.65426000  0.04769510  1
  Mo  Mo13  1  5.43062000  5.51498000  -0.08735690  1
  Mo  Mo14  1  5.55949000  3.59360000  1.79745000  1
  Mo  Mo15  1  3.60754000  5.45150000  1.70779000  1
