# generated using pymatgen
data_Mo
_symmetry_space_group_name_H-M   'P 1'
_cell_length_a   7.28500180
_cell_length_b   7.28500180
_cell_length_c   3.64250088
_cell_angle_alpha   90.00000000
_cell_angle_beta   90.00000000
_cell_angle_gamma   90.00000000
_symmetry_Int_Tables_number   1
_chemical_formula_structural   Mo
_chemical_formula_sum   Mo16
_cell_volume   193.31207935
_cell_formula_units_Z   16
loop_
 _symmetry_equiv_pos_site_id
 _symmetry_equiv_pos_as_xyz
  1  'x, y, z'
loop_
 _atom_site_type_symbol
 _atom_site_label
 _atom_site_symmetry_multiplicity
 _atom_site_fract_x
 _atom_site_fract_y
 _atom_site_fract_z
 _atom_site_occupancy
  Mo  Mo0  1  7.21280000  0.08786830  -0.00705487  1
  Mo  Mo1  1  1.81075000  1.78557000  3.50671000  1
  Mo  Mo2  1  1.93447000  0.08748990  1.81560000  1
  Mo  Mo3  1  -0.03690880  1.73950000  1.77951000  1
  Mo  Mo4  1  3.66870000  7.24581000  0.08567860  1
  Mo  Mo5  1  5.41437000  1.89216000  3.63846000  1
  Mo  Mo6  1  5.39592000  -0.15735000  1.90527000  1
  Mo  Mo7  1  3.68277000  1.87850000  1.75064000  1
  Mo  Mo8  1  0.04627710  3.66114000  3.62622000  1
  Mo  Mo9  1  1.84055000  5.48460000  3.58836000  1
  Mo  Mo10  1  1.86589000  3.61000000  1.76668000  1
  Mo  Mo11  1  -0.04620840  5.51511000  1.77749000  1
  Mo  Mo12  1  3.63192000  3.67093000  0.04719970  1
  Mo  Mo13  1  5.40189000  5.42357000  0.07506920  1
  Mo  Mo14  1  5.45777000  3.61463000  1.92591000  1
  Mo  Mo15  1  3.65805000  5.39946000  1.83026000  1
