# generated using pymatgen
data_Mo
_symmetry_space_group_name_H-M   'P 1'
_cell_length_a   7.28500180
_cell_length_b   7.28500180
_cell_length_c   3.64250088
_cell_angle_alpha   90.00000000
_cell_angle_beta   90.00000000
_cell_angle_gamma   90.00000000
_symmetry_Int_Tables_number   1
_chemical_formula_structural   Mo
_chemical_formula_sum   Mo16
_cell_volume   193.31207935
_cell_formula_units_Z   16
loop_
 _symmetry_equiv_pos_site_id
 _symmetry_equiv_pos_as_xyz
  1  'x, y, z'
loop_
 _atom_site_type_symbol
 _atom_site_label
 _atom_site_symmetry_multiplicity
 _atom_site_fract_x
 _atom_site_fract_y
 _atom_site_fract_z
 _atom_site_occupancy
  Mo  Mo0  1  7.28207000  0.00517969  -0.04246060  1
  Mo  Mo1  1  1.67758000  1.81518000  3.57585000  1
  Mo  Mo2  1  1.79942000  0.02648290  1.84881000  1
  Mo  Mo3  1  0.01267600  1.82471000  1.83302000  1
  Mo  Mo4  1  3.56781000  7.33097000  0.04612890  1
  Mo  Mo5  1  5.44470000  1.79433000  3.56218000  1
  Mo  Mo6  1  5.48832000  -0.06633380  1.88294000  1
  Mo  Mo7  1  3.58644000  1.81552000  1.80951000  1
  Mo  Mo8  1  0.05270950  3.72127000  3.61065000  1
  Mo  Mo9  1  1.82292000  5.42296000  3.65311000  1
  Mo  Mo10  1  1.80834000  3.64673000  1.80065000  1
  Mo  Mo11  1  0.00789049  5.49177000  1.78626000  1
  Mo  Mo12  1  3.65811000  3.61072000  0.09565780  1
  Mo  Mo13  1  5.47827000  5.48572000  0.03252930  1
  Mo  Mo14  1  5.57983000  3.56162000  1.83345000  1
  Mo  Mo15  1  3.67193000  5.45216000  1.78372000  1
