# generated using pymatgen
data_Mo
_symmetry_space_group_name_H-M   'P 1'
_cell_length_a   7.28500180
_cell_length_b   7.28500180
_cell_length_c   3.64250088
_cell_angle_alpha   90.00000000
_cell_angle_beta   90.00000000
_cell_angle_gamma   90.00000000
_symmetry_Int_Tables_number   1
_chemical_formula_structural   Mo
_chemical_formula_sum   Mo16
_cell_volume   193.31207935
_cell_formula_units_Z   16
loop_
 _symmetry_equiv_pos_site_id
 _symmetry_equiv_pos_as_xyz
  1  'x, y, z'
loop_
 _atom_site_type_symbol
 _atom_site_label
 _atom_site_symmetry_multiplicity
 _atom_site_fract_x
 _atom_site_fract_y
 _atom_site_fract_z
 _atom_site_occupancy
  Mo  Mo0  1  7.23581000  -0.01114020  0.01816670  1
  Mo  Mo1  1  1.86096000  1.85053000  3.63774000  1
  Mo  Mo2  1  1.67910000  0.02704260  1.82915000  1
  Mo  Mo3  1  0.01827470  1.88163000  1.77870000  1
  Mo  Mo4  1  3.56644000  7.31426000  -0.04256320  1
  Mo  Mo5  1  5.45761000  1.79193000  3.69078000  1
  Mo  Mo6  1  5.53160000  -0.06123920  1.80110000  1
  Mo  Mo7  1  3.70071000  1.76513000  1.76694000  1
  Mo  Mo8  1  -0.00986948  3.64145000  3.66188000  1
  Mo  Mo9  1  1.83905000  5.39301000  3.61071000  1
  Mo  Mo10  1  1.89661000  3.52463000  1.87600000  1
  Mo  Mo11  1  0.08696020  5.38585000  1.89228000  1
  Mo  Mo12  1  3.57838000  3.67768000  0.01778220  1
  Mo  Mo13  1  5.43673000  5.47140000  -0.04660210  1
  Mo  Mo14  1  5.48205000  3.71009000  1.77769000  1
  Mo  Mo15  1  3.57859000  5.57673000  1.84225000  1
