# generated using pymatgen
data_Mo
_symmetry_space_group_name_H-M   'P 1'
_cell_length_a   7.27806742
_cell_length_b   7.27806742
_cell_length_c   3.63903379
_cell_angle_alpha   90.00000000
_cell_angle_beta   90.00000000
_cell_angle_gamma   90.00000000
_symmetry_Int_Tables_number   1
_chemical_formula_structural   Mo
_chemical_formula_sum   Mo16
_cell_volume   192.76058556
_cell_formula_units_Z   16
loop_
 _symmetry_equiv_pos_site_id
 _symmetry_equiv_pos_as_xyz
  1  'x, y, z'
loop_
 _atom_site_type_symbol
 _atom_site_label
 _atom_site_symmetry_multiplicity
 _atom_site_fract_x
 _atom_site_fract_y
 _atom_site_fract_z
 _atom_site_occupancy
  Mo  Mo0  1  0.00479844  7.27021000  3.65975000  1
  Mo  Mo1  1  1.82843000  1.83103000  -0.01905660  1
  Mo  Mo2  1  1.83400000  7.29536000  1.83242000  1
  Mo  Mo3  1  7.29255000  1.81722000  1.81150000  1
  Mo  Mo4  1  3.66106000  7.25319000  -0.00922874  1
  Mo  Mo5  1  5.44690000  1.82373000  -0.03218520  1
  Mo  Mo6  1  5.47957000  0.00113982  1.78094000  1
  Mo  Mo7  1  3.62511000  1.82719000  1.81809000  1
  Mo  Mo8  1  7.24923000  3.63115000  3.65666000  1
  Mo  Mo9  1  1.81273000  5.44501000  3.63824000  1
  Mo  Mo10  1  1.80679000  3.63710000  1.84969000  1
  Mo  Mo11  1  0.00851206  5.46585000  1.81414000  1
  Mo  Mo12  1  3.64220000  3.63594000  3.62410000  1
  Mo  Mo13  1  5.43622000  5.47622000  3.65211000  1
  Mo  Mo14  1  5.46575000  3.62441000  1.83861000  1
  Mo  Mo15  1  3.63016000  5.46730000  1.83526000  1
