# generated using pymatgen
data_Mo
_symmetry_space_group_name_H-M   'P 1'
_cell_length_a   7.28500180
_cell_length_b   7.28500180
_cell_length_c   3.64250088
_cell_angle_alpha   90.00000000
_cell_angle_beta   90.00000000
_cell_angle_gamma   90.00000000
_symmetry_Int_Tables_number   1
_chemical_formula_structural   Mo
_chemical_formula_sum   Mo16
_cell_volume   193.31207935
_cell_formula_units_Z   16
loop_
 _symmetry_equiv_pos_site_id
 _symmetry_equiv_pos_as_xyz
  1  'x, y, z'
loop_
 _atom_site_type_symbol
 _atom_site_label
 _atom_site_symmetry_multiplicity
 _atom_site_fract_x
 _atom_site_fract_y
 _atom_site_fract_z
 _atom_site_occupancy
  Mo  Mo0  1  7.29181000  -0.07461800  0.01400220  1
  Mo  Mo1  1  1.79861000  1.91812000  3.60718000  1
  Mo  Mo2  1  1.79912000  -0.04432830  1.78568000  1
  Mo  Mo3  1  -0.03917560  1.87115000  1.72881000  1
  Mo  Mo4  1  3.61049000  7.31200000  0.04961750  1
  Mo  Mo5  1  5.53909000  1.75468000  3.70073000  1
  Mo  Mo6  1  5.43587000  0.07751460  1.79516000  1
  Mo  Mo7  1  3.59168000  1.76786000  1.80064000  1
  Mo  Mo8  1  -0.05097460  3.68150000  3.58809000  1
  Mo  Mo9  1  1.85776000  5.47047000  3.63224000  1
  Mo  Mo10  1  1.76874000  3.70630000  1.74626000  1
  Mo  Mo11  1  0.04230010  5.43611000  1.81746000  1
  Mo  Mo12  1  3.65304000  3.52235000  -0.06514960  1
  Mo  Mo13  1  5.51615000  5.46833000  0.05931630  1
  Mo  Mo14  1  5.46820000  3.60251000  1.86765000  1
  Mo  Mo15  1  3.65627000  5.46906000  1.98430000  1
