# generated using pymatgen
data_Mo
_symmetry_space_group_name_H-M   'P 1'
_cell_length_a   7.28500180
_cell_length_b   7.28500180
_cell_length_c   3.64250088
_cell_angle_alpha   90.00000000
_cell_angle_beta   90.00000000
_cell_angle_gamma   90.00000000
_symmetry_Int_Tables_number   1
_chemical_formula_structural   Mo
_chemical_formula_sum   Mo16
_cell_volume   193.31207935
_cell_formula_units_Z   16
loop_
 _symmetry_equiv_pos_site_id
 _symmetry_equiv_pos_as_xyz
  1  'x, y, z'
loop_
 _atom_site_type_symbol
 _atom_site_label
 _atom_site_symmetry_multiplicity
 _atom_site_fract_x
 _atom_site_fract_y
 _atom_site_fract_z
 _atom_site_occupancy
  Mo  Mo0  1  7.29068000  -0.05525250  0.06423730  1
  Mo  Mo1  1  1.67480000  1.86152000  3.59108000  1
  Mo  Mo2  1  1.76672000  0.00740591  1.82676000  1
  Mo  Mo3  1  -0.04659520  1.89188000  1.76813000  1
  Mo  Mo4  1  3.61112000  7.31304000  0.00593724  1
  Mo  Mo5  1  5.55018000  1.85430000  3.69827000  1
  Mo  Mo6  1  5.58972000  -0.04597720  1.86710000  1
  Mo  Mo7  1  3.62446000  1.75604000  1.84605000  1
  Mo  Mo8  1  -0.04448090  3.60841000  3.63831000  1
  Mo  Mo9  1  1.83968000  5.39755000  3.62845000  1
  Mo  Mo10  1  1.86962000  3.56079000  1.80768000  1
  Mo  Mo11  1  0.03184250  5.43751000  1.77335000  1
  Mo  Mo12  1  3.70173000  3.65487000  -0.01430000  1
  Mo  Mo13  1  5.48613000  5.41769000  0.03149400  1
  Mo  Mo14  1  5.38945000  3.72467000  1.81287000  1
  Mo  Mo15  1  3.60392000  5.55454000  1.76657000  1
