# generated using pymatgen
data_Mo
_symmetry_space_group_name_H-M   'P 1'
_cell_length_a   7.28500180
_cell_length_b   7.28500180
_cell_length_c   3.64250088
_cell_angle_alpha   90.00000000
_cell_angle_beta   90.00000000
_cell_angle_gamma   90.00000000
_symmetry_Int_Tables_number   1
_chemical_formula_structural   Mo
_chemical_formula_sum   Mo16
_cell_volume   193.31207935
_cell_formula_units_Z   16
loop_
 _symmetry_equiv_pos_site_id
 _symmetry_equiv_pos_as_xyz
  1  'x, y, z'
loop_
 _atom_site_type_symbol
 _atom_site_label
 _atom_site_symmetry_multiplicity
 _atom_site_fract_x
 _atom_site_fract_y
 _atom_site_fract_z
 _atom_site_occupancy
  Mo  Mo0  1  7.29907000  -0.06481040  -0.04267100  1
  Mo  Mo1  1  1.76797000  1.86911000  3.71551000  1
  Mo  Mo2  1  1.82105000  -0.06952560  1.81838000  1
  Mo  Mo3  1  0.01974130  1.87964000  1.88251000  1
  Mo  Mo4  1  3.57929000  7.33994000  -0.05918620  1
  Mo  Mo5  1  5.40240000  1.78609000  3.59244000  1
  Mo  Mo6  1  5.51174000  0.01681930  1.84376000  1
  Mo  Mo7  1  3.61368000  1.74899000  1.82354000  1
  Mo  Mo8  1  -0.04137310  3.68290000  3.67938000  1
  Mo  Mo9  1  1.86401000  5.41096000  3.68374000  1
  Mo  Mo10  1  1.92787000  3.67685000  1.85891000  1
  Mo  Mo11  1  0.00779790  5.41518000  1.84811000  1
  Mo  Mo12  1  3.71596000  3.64887000  0.04126770  1
  Mo  Mo13  1  5.41571000  5.48630000  -0.04199540  1
  Mo  Mo14  1  5.44817000  3.58551000  1.77616000  1
  Mo  Mo15  1  3.58592000  5.52618000  1.69214000  1
