# generated using pymatgen
data_Mo
_symmetry_space_group_name_H-M   'P 1'
_cell_length_a   7.28500180
_cell_length_b   7.28500180
_cell_length_c   3.64250088
_cell_angle_alpha   90.00000000
_cell_angle_beta   90.00000000
_cell_angle_gamma   90.00000000
_symmetry_Int_Tables_number   1
_chemical_formula_structural   Mo
_chemical_formula_sum   Mo16
_cell_volume   193.31207935
_cell_formula_units_Z   16
loop_
 _symmetry_equiv_pos_site_id
 _symmetry_equiv_pos_as_xyz
  1  'x, y, z'
loop_
 _atom_site_type_symbol
 _atom_site_label
 _atom_site_symmetry_multiplicity
 _atom_site_fract_x
 _atom_site_fract_y
 _atom_site_fract_z
 _atom_site_occupancy
  Mo  Mo0  1  7.39896000  -0.04583760  -0.01240380  1
  Mo  Mo1  1  1.84736000  1.83686000  3.63586000  1
  Mo  Mo2  1  1.81272000  0.03217300  1.84339000  1
  Mo  Mo3  1  -0.04265370  1.86384000  1.85674000  1
  Mo  Mo4  1  3.63210000  7.26377000  -0.02445880  1
  Mo  Mo5  1  5.37933000  1.81601000  3.57796000  1
  Mo  Mo6  1  5.50416000  -0.03571700  1.81127000  1
  Mo  Mo7  1  3.58726000  1.81710000  1.88306000  1
  Mo  Mo8  1  0.06470580  3.66549000  3.58216000  1
  Mo  Mo9  1  1.83211000  5.46464000  3.75477000  1
  Mo  Mo10  1  1.85552000  3.63778000  1.83933000  1
  Mo  Mo11  1  0.06961690  5.35976000  1.75609000  1
  Mo  Mo12  1  3.64146000  3.56941000  0.03477870  1
  Mo  Mo13  1  5.47623000  5.50851000  -0.01383230  1
  Mo  Mo14  1  5.32741000  3.69927000  1.77149000  1
  Mo  Mo15  1  3.55270000  5.48595000  1.81579000  1
