# generated using pymatgen
data_Mo
_symmetry_space_group_name_H-M   'P 1'
_cell_length_a   7.28500180
_cell_length_b   7.28500180
_cell_length_c   3.64250088
_cell_angle_alpha   90.00000000
_cell_angle_beta   90.00000000
_cell_angle_gamma   90.00000000
_symmetry_Int_Tables_number   1
_chemical_formula_structural   Mo
_chemical_formula_sum   Mo16
_cell_volume   193.31207935
_cell_formula_units_Z   16
loop_
 _symmetry_equiv_pos_site_id
 _symmetry_equiv_pos_as_xyz
  1  'x, y, z'
loop_
 _atom_site_type_symbol
 _atom_site_label
 _atom_site_symmetry_multiplicity
 _atom_site_fract_x
 _atom_site_fract_y
 _atom_site_fract_z
 _atom_site_occupancy
  Mo  Mo0  1  7.25072000  -0.01002200  -0.04342060  1
  Mo  Mo1  1  1.84353000  1.80371000  3.58192000  1
  Mo  Mo2  1  1.69208000  0.00428698  1.76262000  1
  Mo  Mo3  1  0.00735002  1.94644000  1.88599000  1
  Mo  Mo4  1  3.65434000  7.28109000  -0.01486650  1
  Mo  Mo5  1  5.43044000  1.76378000  3.63586000  1
  Mo  Mo6  1  5.48265000  0.01054450  1.79828000  1
  Mo  Mo7  1  3.65476000  1.76216000  1.85348000  1
  Mo  Mo8  1  0.08194930  3.60005000  3.71975000  1
  Mo  Mo9  1  1.75699000  5.52908000  3.62966000  1
  Mo  Mo10  1  1.86682000  3.70374000  1.72938000  1
  Mo  Mo11  1  0.08469640  5.43572000  1.84518000  1
  Mo  Mo12  1  3.61494000  3.62845000  0.01185580  1
  Mo  Mo13  1  5.53526000  5.35025000  0.02555530  1
  Mo  Mo14  1  5.40508000  3.63827000  1.82707000  1
  Mo  Mo15  1  3.57740000  5.49146000  1.86368000  1
