# generated using pymatgen
data_Mo
_symmetry_space_group_name_H-M   'P 1'
_cell_length_a   7.28500180
_cell_length_b   7.28500180
_cell_length_c   3.64250088
_cell_angle_alpha   90.00000000
_cell_angle_beta   90.00000000
_cell_angle_gamma   90.00000000
_symmetry_Int_Tables_number   1
_chemical_formula_structural   Mo
_chemical_formula_sum   Mo16
_cell_volume   193.31207935
_cell_formula_units_Z   16
loop_
 _symmetry_equiv_pos_site_id
 _symmetry_equiv_pos_as_xyz
  1  'x, y, z'
loop_
 _atom_site_type_symbol
 _atom_site_label
 _atom_site_symmetry_multiplicity
 _atom_site_fract_x
 _atom_site_fract_y
 _atom_site_fract_z
 _atom_site_occupancy
  Mo  Mo0  1  7.24873000  0.05117340  0.01239360  1
  Mo  Mo1  1  1.86667000  1.82786000  3.60338000  1
  Mo  Mo2  1  1.73732000  0.03249220  1.80238000  1
  Mo  Mo3  1  -0.01679980  1.83119000  1.76479000  1
  Mo  Mo4  1  3.58941000  7.23355000  0.00437814  1
  Mo  Mo5  1  5.40959000  1.92954000  3.69034000  1
  Mo  Mo6  1  5.53407000  -0.05434110  1.87531000  1
  Mo  Mo7  1  3.62033000  1.77813000  1.73881000  1
  Mo  Mo8  1  0.08134870  3.65802000  3.58620000  1
  Mo  Mo9  1  1.78310000  5.50557000  3.58194000  1
  Mo  Mo10  1  1.95957000  3.61969000  1.79358000  1
  Mo  Mo11  1  0.01055840  5.39214000  1.79167000  1
  Mo  Mo12  1  3.60209000  3.63633000  -0.03288870  1
  Mo  Mo13  1  5.47055000  5.43179000  0.10498600  1
  Mo  Mo14  1  5.42693000  3.58945000  1.95244000  1
  Mo  Mo15  1  3.61552000  5.47642000  1.84228000  1
