# generated using pymatgen
data_Mo
_symmetry_space_group_name_H-M   'P 1'
_cell_length_a   7.28500180
_cell_length_b   7.28500180
_cell_length_c   3.64250088
_cell_angle_alpha   90.00000000
_cell_angle_beta   90.00000000
_cell_angle_gamma   90.00000000
_symmetry_Int_Tables_number   1
_chemical_formula_structural   Mo
_chemical_formula_sum   Mo16
_cell_volume   193.31207935
_cell_formula_units_Z   16
loop_
 _symmetry_equiv_pos_site_id
 _symmetry_equiv_pos_as_xyz
  1  'x, y, z'
loop_
 _atom_site_type_symbol
 _atom_site_label
 _atom_site_symmetry_multiplicity
 _atom_site_fract_x
 _atom_site_fract_y
 _atom_site_fract_z
 _atom_site_occupancy
  Mo  Mo0  1  7.31131000  0.00705211  0.00445557  1
  Mo  Mo1  1  1.89072000  1.78095000  3.60547000  1
  Mo  Mo2  1  1.78200000  -0.05174750  1.88638000  1
  Mo  Mo3  1  0.02879000  1.69772000  1.78554000  1
  Mo  Mo4  1  3.67524000  7.30982000  0.02177670  1
  Mo  Mo5  1  5.48967000  1.88951000  3.61331000  1
  Mo  Mo6  1  5.47732000  0.01447220  1.84629000  1
  Mo  Mo7  1  3.64495000  1.90631000  1.85488000  1
  Mo  Mo8  1  0.00480549  3.64463000  3.58651000  1
  Mo  Mo9  1  1.71988000  5.40748000  3.66980000  1
  Mo  Mo10  1  1.74791000  3.64751000  1.81495000  1
  Mo  Mo11  1  -0.02097850  5.46003000  1.74707000  1
  Mo  Mo12  1  3.58004000  3.67750000  0.01795660  1
  Mo  Mo13  1  5.51628000  5.45080000  0.03767870  1
  Mo  Mo14  1  5.49901000  3.58871000  1.82473000  1
  Mo  Mo15  1  3.59205000  5.50825000  1.79520000  1
