# generated using pymatgen
data_Mo
_symmetry_space_group_name_H-M   'P 1'
_cell_length_a   7.28500180
_cell_length_b   7.28500180
_cell_length_c   3.64250088
_cell_angle_alpha   90.00000000
_cell_angle_beta   90.00000000
_cell_angle_gamma   90.00000000
_symmetry_Int_Tables_number   1
_chemical_formula_structural   Mo
_chemical_formula_sum   Mo16
_cell_volume   193.31207935
_cell_formula_units_Z   16
loop_
 _symmetry_equiv_pos_site_id
 _symmetry_equiv_pos_as_xyz
  1  'x, y, z'
loop_
 _atom_site_type_symbol
 _atom_site_label
 _atom_site_symmetry_multiplicity
 _atom_site_fract_x
 _atom_site_fract_y
 _atom_site_fract_z
 _atom_site_occupancy
  Mo  Mo0  1  7.33501000  -0.00442358  -0.00481966  1
  Mo  Mo1  1  1.83218000  1.80554000  3.72143000  1
  Mo  Mo2  1  1.75529000  -0.00995409  1.89989000  1
  Mo  Mo3  1  0.00194333  1.88869000  1.77780000  1
  Mo  Mo4  1  3.49962000  7.31346000  0.02953250  1
  Mo  Mo5  1  5.43105000  1.84787000  3.60682000  1
  Mo  Mo6  1  5.51295000  -0.03744160  1.73554000  1
  Mo  Mo7  1  3.65108000  1.75486000  1.76486000  1
  Mo  Mo8  1  -0.04541530  3.63108000  3.65158000  1
  Mo  Mo9  1  1.88603000  5.39437000  3.62627000  1
  Mo  Mo10  1  1.93440000  3.55419000  1.87946000  1
  Mo  Mo11  1  0.15634700  5.39583000  1.82091000  1
  Mo  Mo12  1  3.58347000  3.71997000  0.01743180  1
  Mo  Mo13  1  5.43378000  5.43470000  -0.07535020  1
  Mo  Mo14  1  5.40190000  3.70794000  1.76680000  1
  Mo  Mo15  1  3.56936000  5.54232000  1.89384000  1
