# generated using pymatgen
data_Mo
_symmetry_space_group_name_H-M   'P 1'
_cell_length_a   7.28500180
_cell_length_b   7.28500180
_cell_length_c   3.64250088
_cell_angle_alpha   90.00000000
_cell_angle_beta   90.00000000
_cell_angle_gamma   90.00000000
_symmetry_Int_Tables_number   1
_chemical_formula_structural   Mo
_chemical_formula_sum   Mo16
_cell_volume   193.31207935
_cell_formula_units_Z   16
loop_
 _symmetry_equiv_pos_site_id
 _symmetry_equiv_pos_as_xyz
  1  'x, y, z'
loop_
 _atom_site_type_symbol
 _atom_site_label
 _atom_site_symmetry_multiplicity
 _atom_site_fract_x
 _atom_site_fract_y
 _atom_site_fract_z
 _atom_site_occupancy
  Mo  Mo0  1  7.28638000  0.00673806  -0.04036030  1
  Mo  Mo1  1  1.80661000  1.71665000  3.62921000  1
  Mo  Mo2  1  1.92741000  -0.04204530  1.74841000  1
  Mo  Mo3  1  -0.03364620  1.76483000  1.81943000  1
  Mo  Mo4  1  3.72045000  7.31806000  0.07315290  1
  Mo  Mo5  1  5.43340000  1.88179000  3.69072000  1
  Mo  Mo6  1  5.38542000  -0.00235419  1.84056000  1
  Mo  Mo7  1  3.60284000  1.83819000  1.78695000  1
  Mo  Mo8  1  0.14043200  3.55278000  3.58315000  1
  Mo  Mo9  1  1.84023000  5.55327000  3.60968000  1
  Mo  Mo10  1  1.78071000  3.59786000  1.74938000  1
  Mo  Mo11  1  -0.02122440  5.41385000  1.88707000  1
  Mo  Mo12  1  3.56866000  3.78108000  0.03459680  1
  Mo  Mo13  1  5.38979000  5.44744000  -0.03138720  1
  Mo  Mo14  1  5.48090000  3.71806000  1.81942000  1
  Mo  Mo15  1  3.63063000  5.39279000  1.91201000  1
