# generated using pymatgen
data_Mo
_symmetry_space_group_name_H-M   'P 1'
_cell_length_a   7.28500180
_cell_length_b   7.28500180
_cell_length_c   3.64250088
_cell_angle_alpha   90.00000000
_cell_angle_beta   90.00000000
_cell_angle_gamma   90.00000000
_symmetry_Int_Tables_number   1
_chemical_formula_structural   Mo
_chemical_formula_sum   Mo16
_cell_volume   193.31207935
_cell_formula_units_Z   16
loop_
 _symmetry_equiv_pos_site_id
 _symmetry_equiv_pos_as_xyz
  1  'x, y, z'
loop_
 _atom_site_type_symbol
 _atom_site_label
 _atom_site_symmetry_multiplicity
 _atom_site_fract_x
 _atom_site_fract_y
 _atom_site_fract_z
 _atom_site_occupancy
  Mo  Mo0  1  7.36972000  -0.02932480  0.03108620  1
  Mo  Mo1  1  1.79688000  1.85579000  3.55385000  1
  Mo  Mo2  1  1.76576000  -0.07739210  1.77887000  1
  Mo  Mo3  1  0.04596280  1.86267000  1.82810000  1
  Mo  Mo4  1  3.65779000  7.33127000  0.02021190  1
  Mo  Mo5  1  5.40726000  1.84467000  3.65810000  1
  Mo  Mo6  1  5.56424000  -0.00510998  1.87846000  1
  Mo  Mo7  1  3.53051000  1.68566000  1.82493000  1
  Mo  Mo8  1  0.07842840  3.65073000  3.66883000  1
  Mo  Mo9  1  1.75130000  5.46634000  3.59420000  1
  Mo  Mo10  1  1.76911000  3.73236000  1.78677000  1
  Mo  Mo11  1  -0.02154910  5.48959000  1.76395000  1
  Mo  Mo12  1  3.63171000  3.66880000  0.01408820  1
  Mo  Mo13  1  5.46339000  5.41972000  0.01781260  1
  Mo  Mo14  1  5.48063000  3.57260000  1.87629000  1
  Mo  Mo15  1  3.64788000  5.47062000  1.81646000  1
