# generated using pymatgen
data_Mo
_symmetry_space_group_name_H-M   'P 1'
_cell_length_a   7.28500180
_cell_length_b   7.28500180
_cell_length_c   3.64250088
_cell_angle_alpha   90.00000000
_cell_angle_beta   90.00000000
_cell_angle_gamma   90.00000000
_symmetry_Int_Tables_number   1
_chemical_formula_structural   Mo
_chemical_formula_sum   Mo16
_cell_volume   193.31207935
_cell_formula_units_Z   16
loop_
 _symmetry_equiv_pos_site_id
 _symmetry_equiv_pos_as_xyz
  1  'x, y, z'
loop_
 _atom_site_type_symbol
 _atom_site_label
 _atom_site_symmetry_multiplicity
 _atom_site_fract_x
 _atom_site_fract_y
 _atom_site_fract_z
 _atom_site_occupancy
  Mo  Mo0  1  7.25075000  0.05772570  0.06232290  1
  Mo  Mo1  1  1.95501000  1.76631000  3.61282000  1
  Mo  Mo2  1  1.86561000  0.04556310  1.85592000  1
  Mo  Mo3  1  -0.09918330  1.74688000  1.87714000  1
  Mo  Mo4  1  3.69356000  7.26747000  -0.05013230  1
  Mo  Mo5  1  5.40987000  1.88730000  3.63234000  1
  Mo  Mo6  1  5.39108000  -0.08054970  1.80601000  1
  Mo  Mo7  1  3.70926000  1.92483000  1.82702000  1
  Mo  Mo8  1  0.02709590  3.60427000  3.70011000  1
  Mo  Mo9  1  1.81619000  5.43219000  3.58007000  1
  Mo  Mo10  1  1.72912000  3.55345000  1.91158000  1
  Mo  Mo11  1  -0.04017220  5.45099000  1.82330000  1
  Mo  Mo12  1  3.55079000  3.66896000  -0.04504390  1
  Mo  Mo13  1  5.48682000  5.45526000  -0.00271055  1
  Mo  Mo14  1  5.49865000  3.67553000  1.79348000  1
  Mo  Mo15  1  3.69455000  5.48282000  1.72776000  1
