# generated using pymatgen
data_Mo
_symmetry_space_group_name_H-M   'P 1'
_cell_length_a   7.28500180
_cell_length_b   7.28500180
_cell_length_c   3.64250088
_cell_angle_alpha   90.00000000
_cell_angle_beta   90.00000000
_cell_angle_gamma   90.00000000
_symmetry_Int_Tables_number   1
_chemical_formula_structural   Mo
_chemical_formula_sum   Mo16
_cell_volume   193.31207935
_cell_formula_units_Z   16
loop_
 _symmetry_equiv_pos_site_id
 _symmetry_equiv_pos_as_xyz
  1  'x, y, z'
loop_
 _atom_site_type_symbol
 _atom_site_label
 _atom_site_symmetry_multiplicity
 _atom_site_fract_x
 _atom_site_fract_y
 _atom_site_fract_z
 _atom_site_occupancy
  Mo  Mo0  1  7.23479000  -0.02217860  0.03230290  1
  Mo  Mo1  1  1.89260000  1.85859000  3.65757000  1
  Mo  Mo2  1  1.87417000  0.03340440  1.87637000  1
  Mo  Mo3  1  0.01240720  1.78890000  1.81868000  1
  Mo  Mo4  1  3.68071000  7.26627000  -0.00767937  1
  Mo  Mo5  1  5.35467000  1.80547000  3.52863000  1
  Mo  Mo6  1  5.44110000  -0.00799307  1.83266000  1
  Mo  Mo7  1  3.66705000  1.83220000  1.86068000  1
  Mo  Mo8  1  0.02643600  3.67014000  3.66768000  1
  Mo  Mo9  1  1.85674000  5.44582000  3.70282000  1
  Mo  Mo10  1  1.73647000  3.69201000  1.85076000  1
  Mo  Mo11  1  0.05089760  5.55247000  1.77077000  1
  Mo  Mo12  1  3.57650000  3.55214000  -0.02355770  1
  Mo  Mo13  1  5.46167000  5.40196000  0.01695530  1
  Mo  Mo14  1  5.44927000  3.65141000  1.77428000  1
  Mo  Mo15  1  3.62352000  5.41838000  1.75307000  1
