# generated using pymatgen
data_Mo
_symmetry_space_group_name_H-M   'P 1'
_cell_length_a   7.28500180
_cell_length_b   7.28500180
_cell_length_c   3.64250088
_cell_angle_alpha   90.00000000
_cell_angle_beta   90.00000000
_cell_angle_gamma   90.00000000
_symmetry_Int_Tables_number   1
_chemical_formula_structural   Mo
_chemical_formula_sum   Mo16
_cell_volume   193.31207935
_cell_formula_units_Z   16
loop_
 _symmetry_equiv_pos_site_id
 _symmetry_equiv_pos_as_xyz
  1  'x, y, z'
loop_
 _atom_site_type_symbol
 _atom_site_label
 _atom_site_symmetry_multiplicity
 _atom_site_fract_x
 _atom_site_fract_y
 _atom_site_fract_z
 _atom_site_occupancy
  Mo  Mo0  1  7.17627000  0.03940450  0.02953200  1
  Mo  Mo1  1  1.81352000  1.73925000  3.58135000  1
  Mo  Mo2  1  1.86096000  -0.01271970  1.82782000  1
  Mo  Mo3  1  -0.09071540  1.79533000  1.74815000  1
  Mo  Mo4  1  3.67455000  7.28162000  0.06055930  1
  Mo  Mo5  1  5.38391000  1.93379000  3.61658000  1
  Mo  Mo6  1  5.38633000  -0.03820410  1.90207000  1
  Mo  Mo7  1  3.73016000  1.79849000  1.78784000  1
  Mo  Mo8  1  0.09618170  3.71384000  3.58896000  1
  Mo  Mo9  1  1.77550000  5.46284000  3.62248000  1
  Mo  Mo10  1  1.84988000  3.64970000  1.87041000  1
  Mo  Mo11  1  0.03341590  5.43390000  1.81120000  1
  Mo  Mo12  1  3.65341000  3.63515000  0.01927910  1
  Mo  Mo13  1  5.46999000  5.45556000  0.00918233  1
  Mo  Mo14  1  5.50392000  3.58623000  1.85612000  1
  Mo  Mo15  1  3.62172000  5.46482000  1.78047000  1
