# generated using pymatgen
data_Mo
_symmetry_space_group_name_H-M   'P 1'
_cell_length_a   7.28500180
_cell_length_b   7.28500180
_cell_length_c   3.64250088
_cell_angle_alpha   90.00000000
_cell_angle_beta   90.00000000
_cell_angle_gamma   90.00000000
_symmetry_Int_Tables_number   1
_chemical_formula_structural   Mo
_chemical_formula_sum   Mo16
_cell_volume   193.31207935
_cell_formula_units_Z   16
loop_
 _symmetry_equiv_pos_site_id
 _symmetry_equiv_pos_as_xyz
  1  'x, y, z'
loop_
 _atom_site_type_symbol
 _atom_site_label
 _atom_site_symmetry_multiplicity
 _atom_site_fract_x
 _atom_site_fract_y
 _atom_site_fract_z
 _atom_site_occupancy
  Mo  Mo0  1  7.26468000  0.01562120  -0.01819130  1
  Mo  Mo1  1  1.81040000  1.75833000  3.68767000  1
  Mo  Mo2  1  1.78698000  0.03396410  1.73776000  1
  Mo  Mo3  1  -0.07293300  1.85614000  1.78483000  1
  Mo  Mo4  1  3.66551000  7.29971000  -0.01983030  1
  Mo  Mo5  1  5.51861000  1.80766000  3.68635000  1
  Mo  Mo6  1  5.43467000  -0.02161010  1.78750000  1
  Mo  Mo7  1  3.72611000  1.78979000  1.80281000  1
  Mo  Mo8  1  -0.02618340  3.63769000  3.64708000  1
  Mo  Mo9  1  1.82488000  5.52882000  3.63228000  1
  Mo  Mo10  1  1.88672000  3.58742000  1.80325000  1
  Mo  Mo11  1  -0.02596890  5.39425000  1.91771000  1
  Mo  Mo12  1  3.66808000  3.61376000  0.04229700  1
  Mo  Mo13  1  5.39382000  5.52725000  -0.01373990  1
  Mo  Mo14  1  5.45013000  3.62321000  1.81344000  1
  Mo  Mo15  1  3.63349000  5.48699000  1.82078000  1
