# generated using pymatgen
data_Mo
_symmetry_space_group_name_H-M   'P 1'
_cell_length_a   7.28500180
_cell_length_b   7.28500180
_cell_length_c   3.64250088
_cell_angle_alpha   90.00000000
_cell_angle_beta   90.00000000
_cell_angle_gamma   90.00000000
_symmetry_Int_Tables_number   1
_chemical_formula_structural   Mo
_chemical_formula_sum   Mo16
_cell_volume   193.31207935
_cell_formula_units_Z   16
loop_
 _symmetry_equiv_pos_site_id
 _symmetry_equiv_pos_as_xyz
  1  'x, y, z'
loop_
 _atom_site_type_symbol
 _atom_site_label
 _atom_site_symmetry_multiplicity
 _atom_site_fract_x
 _atom_site_fract_y
 _atom_site_fract_z
 _atom_site_occupancy
  Mo  Mo0  1  7.34955000  0.02357700  -0.03088650  1
  Mo  Mo1  1  1.77850000  1.86738000  3.70278000  1
  Mo  Mo2  1  1.77528000  -0.06648400  1.82478000  1
  Mo  Mo3  1  -0.01378990  1.80626000  1.90531000  1
  Mo  Mo4  1  3.61553000  7.31226000  -0.03046060  1
  Mo  Mo5  1  5.47912000  1.81889000  3.59031000  1
  Mo  Mo6  1  5.47801000  0.04307440  1.79407000  1
  Mo  Mo7  1  3.53557000  1.79858000  1.78023000  1
  Mo  Mo8  1  -0.01506520  3.64972000  3.63276000  1
  Mo  Mo9  1  1.80809000  5.43296000  3.67940000  1
  Mo  Mo10  1  1.80672000  3.66489000  1.80380000  1
  Mo  Mo11  1  -0.01005550  5.44793000  1.89752000  1
  Mo  Mo12  1  3.69982000  3.62106000  0.01572390  1
  Mo  Mo13  1  5.51456000  5.50781000  -0.10492100  1
  Mo  Mo14  1  5.52191000  3.57935000  1.84581000  1
  Mo  Mo15  1  3.61527000  5.43176000  1.80577000  1
