# generated using pymatgen
data_Mo
_symmetry_space_group_name_H-M   'P 1'
_cell_length_a   7.28500180
_cell_length_b   7.28500180
_cell_length_c   3.64250088
_cell_angle_alpha   90.00000000
_cell_angle_beta   90.00000000
_cell_angle_gamma   90.00000000
_symmetry_Int_Tables_number   1
_chemical_formula_structural   Mo
_chemical_formula_sum   Mo16
_cell_volume   193.31207935
_cell_formula_units_Z   16
loop_
 _symmetry_equiv_pos_site_id
 _symmetry_equiv_pos_as_xyz
  1  'x, y, z'
loop_
 _atom_site_type_symbol
 _atom_site_label
 _atom_site_symmetry_multiplicity
 _atom_site_fract_x
 _atom_site_fract_y
 _atom_site_fract_z
 _atom_site_occupancy
  Mo  Mo0  1  7.26236000  0.04003930  -0.00056900  1
  Mo  Mo1  1  1.79987000  1.82801000  3.66652000  1
  Mo  Mo2  1  1.79250000  0.04706910  1.80162000  1
  Mo  Mo3  1  -0.02529130  1.83183000  1.75638000  1
  Mo  Mo4  1  3.66138000  7.24582000  -0.00661686  1
  Mo  Mo5  1  5.45053000  1.87465000  3.67019000  1
  Mo  Mo6  1  5.55807000  -0.08701500  1.83121000  1
  Mo  Mo7  1  3.67800000  1.73355000  1.80270000  1
  Mo  Mo8  1  0.06715210  3.65982000  3.63729000  1
  Mo  Mo9  1  1.74011000  5.51875000  3.64817000  1
  Mo  Mo10  1  1.80703000  3.66298000  1.92022000  1
  Mo  Mo11  1  0.03980800  5.35431000  1.79525000  1
  Mo  Mo12  1  3.55876000  3.67527000  0.00758010  1
  Mo  Mo13  1  5.49361000  5.44058000  -0.03760820  1
  Mo  Mo14  1  5.47913000  3.55940000  1.87133000  1
  Mo  Mo15  1  3.57598000  5.55393000  1.74835000  1
