# generated using pymatgen
data_Mo
_symmetry_space_group_name_H-M   'P 1'
_cell_length_a   7.27806742
_cell_length_b   7.27806742
_cell_length_c   3.63903379
_cell_angle_alpha   90.00000000
_cell_angle_beta   90.00000000
_cell_angle_gamma   90.00000000
_symmetry_Int_Tables_number   1
_chemical_formula_structural   Mo
_chemical_formula_sum   Mo16
_cell_volume   192.76058556
_cell_formula_units_Z   16
loop_
 _symmetry_equiv_pos_site_id
 _symmetry_equiv_pos_as_xyz
  1  'x, y, z'
loop_
 _atom_site_type_symbol
 _atom_site_label
 _atom_site_symmetry_multiplicity
 _atom_site_fract_x
 _atom_site_fract_y
 _atom_site_fract_z
 _atom_site_occupancy
  Mo  Mo0  1  -0.00408169  7.28575000  3.63416000  1
  Mo  Mo1  1  1.82123000  1.82017000  0.02397210  1
  Mo  Mo2  1  1.81771000  7.26645000  1.83595000  1
  Mo  Mo3  1  7.28020000  1.81178000  1.82848000  1
  Mo  Mo4  1  3.62974000  7.29200000  0.02627970  1
  Mo  Mo5  1  5.43867000  1.80645000  -0.00049800  1
  Mo  Mo6  1  5.47327000  0.01317740  1.83653000  1
  Mo  Mo7  1  3.63777000  1.82602000  1.81949000  1
  Mo  Mo8  1  7.27918000  3.62223000  3.62321000  1
  Mo  Mo9  1  1.80586000  5.46083000  3.60731000  1
  Mo  Mo10  1  1.82801000  3.65105000  1.77161000  1
  Mo  Mo11  1  -0.00409820  5.45604000  1.80615000  1
  Mo  Mo12  1  3.65415000  3.63564000  3.67172000  1
  Mo  Mo13  1  5.45213000  5.44706000  3.63535000  1
  Mo  Mo14  1  5.47388000  3.66046000  1.82211000  1
  Mo  Mo15  1  3.64039000  5.44695000  1.80919000  1
