# generated using pymatgen
data_Mo
_symmetry_space_group_name_H-M   'P 1'
_cell_length_a   7.28500180
_cell_length_b   7.28500180
_cell_length_c   3.64250088
_cell_angle_alpha   90.00000000
_cell_angle_beta   90.00000000
_cell_angle_gamma   90.00000000
_symmetry_Int_Tables_number   1
_chemical_formula_structural   Mo
_chemical_formula_sum   Mo16
_cell_volume   193.31207935
_cell_formula_units_Z   16
loop_
 _symmetry_equiv_pos_site_id
 _symmetry_equiv_pos_as_xyz
  1  'x, y, z'
loop_
 _atom_site_type_symbol
 _atom_site_label
 _atom_site_symmetry_multiplicity
 _atom_site_fract_x
 _atom_site_fract_y
 _atom_site_fract_z
 _atom_site_occupancy
  Mo  Mo0  1  7.22771000  0.09722720  -0.03281630  1
  Mo  Mo1  1  1.86060000  1.76374000  3.61708000  1
  Mo  Mo2  1  1.83903000  0.03445310  1.78694000  1
  Mo  Mo3  1  0.05767650  1.80579000  1.90775000  1
  Mo  Mo4  1  3.66024000  7.15285000  -0.03508850  1
  Mo  Mo5  1  5.45390000  1.78541000  3.58280000  1
  Mo  Mo6  1  5.44833000  0.01484900  1.84077000  1
  Mo  Mo7  1  3.65987000  1.85645000  1.82022000  1
  Mo  Mo8  1  -0.03494250  3.57787000  3.65253000  1
  Mo  Mo9  1  1.82696000  5.53711000  3.69414000  1
  Mo  Mo10  1  1.76445000  3.72747000  1.78160000  1
  Mo  Mo11  1  -0.03519710  5.47099000  1.83178000  1
  Mo  Mo12  1  3.58038000  3.63684000  -0.04711800  1
  Mo  Mo13  1  5.52209000  5.42929000  0.03401860  1
  Mo  Mo14  1  5.41473000  3.60278000  1.85870000  1
  Mo  Mo15  1  3.69319000  5.44587000  1.81868000  1
