# generated using pymatgen
data_Mo
_symmetry_space_group_name_H-M   'P 1'
_cell_length_a   7.28500180
_cell_length_b   7.28500180
_cell_length_c   3.64250088
_cell_angle_alpha   90.00000000
_cell_angle_beta   90.00000000
_cell_angle_gamma   90.00000000
_symmetry_Int_Tables_number   1
_chemical_formula_structural   Mo
_chemical_formula_sum   Mo16
_cell_volume   193.31207935
_cell_formula_units_Z   16
loop_
 _symmetry_equiv_pos_site_id
 _symmetry_equiv_pos_as_xyz
  1  'x, y, z'
loop_
 _atom_site_type_symbol
 _atom_site_label
 _atom_site_symmetry_multiplicity
 _atom_site_fract_x
 _atom_site_fract_y
 _atom_site_fract_z
 _atom_site_occupancy
  Mo  Mo0  1  7.26843000  0.04756430  0.02089190  1
  Mo  Mo1  1  1.76506000  1.72687000  3.73042000  1
  Mo  Mo2  1  1.79374000  0.04461670  1.92440000  1
  Mo  Mo3  1  -0.01104100  1.74955000  1.84106000  1
  Mo  Mo4  1  3.69211000  7.25559000  0.03667880  1
  Mo  Mo5  1  5.46948000  1.94481000  3.59449000  1
  Mo  Mo6  1  5.58299000  -0.09018980  1.74135000  1
  Mo  Mo7  1  3.65504000  1.79604000  1.75436000  1
  Mo  Mo8  1  0.02807770  3.64819000  3.65138000  1
  Mo  Mo9  1  1.75414000  5.47730000  3.65937000  1
  Mo  Mo10  1  1.82380000  3.56290000  1.92038000  1
  Mo  Mo11  1  -0.01379490  5.42307000  1.75629000  1
  Mo  Mo12  1  3.57776000  3.69681000  -0.02780700  1
  Mo  Mo13  1  5.48949000  5.47995000  -0.09279380  1
  Mo  Mo14  1  5.42286000  3.67242000  1.84083000  1
  Mo  Mo15  1  3.64086000  5.50352000  1.76069000  1
