# generated using pymatgen
data_Mo
_symmetry_space_group_name_H-M   'P 1'
_cell_length_a   7.28500180
_cell_length_b   7.28500180
_cell_length_c   3.64250088
_cell_angle_alpha   90.00000000
_cell_angle_beta   90.00000000
_cell_angle_gamma   90.00000000
_symmetry_Int_Tables_number   1
_chemical_formula_structural   Mo
_chemical_formula_sum   Mo16
_cell_volume   193.31207935
_cell_formula_units_Z   16
loop_
 _symmetry_equiv_pos_site_id
 _symmetry_equiv_pos_as_xyz
  1  'x, y, z'
loop_
 _atom_site_type_symbol
 _atom_site_label
 _atom_site_symmetry_multiplicity
 _atom_site_fract_x
 _atom_site_fract_y
 _atom_site_fract_z
 _atom_site_occupancy
  Mo  Mo0  1  7.21477000  -0.01120870  0.00330547  1
  Mo  Mo1  1  1.79103000  1.77706000  3.73538000  1
  Mo  Mo2  1  1.88996000  0.02047120  1.81495000  1
  Mo  Mo3  1  0.03200440  1.75876000  1.84410000  1
  Mo  Mo4  1  3.74437000  7.27811000  -0.02769050  1
  Mo  Mo5  1  5.44730000  1.87225000  3.65330000  1
  Mo  Mo6  1  5.45284000  0.00523955  1.83818000  1
  Mo  Mo7  1  3.70470000  1.87250000  1.79102000  1
  Mo  Mo8  1  -0.05271390  3.51141000  3.62755000  1
  Mo  Mo9  1  1.74033000  5.48844000  3.66842000  1
  Mo  Mo10  1  1.81545000  3.55357000  1.72770000  1
  Mo  Mo11  1  -0.00898423  5.47065000  1.88029000  1
  Mo  Mo12  1  3.70413000  3.75586000  -0.01068910  1
  Mo  Mo13  1  5.44113000  5.43424000  -0.04641510  1
  Mo  Mo14  1  5.45074000  3.74296000  1.83603000  1
  Mo  Mo15  1  3.57195000  5.40868000  1.77656000  1
