# generated using pymatgen
data_Mo
_symmetry_space_group_name_H-M   'P 1'
_cell_length_a   7.28500180
_cell_length_b   7.28500180
_cell_length_c   3.64250088
_cell_angle_alpha   90.00000000
_cell_angle_beta   90.00000000
_cell_angle_gamma   90.00000000
_symmetry_Int_Tables_number   1
_chemical_formula_structural   Mo
_chemical_formula_sum   Mo16
_cell_volume   193.31207935
_cell_formula_units_Z   16
loop_
 _symmetry_equiv_pos_site_id
 _symmetry_equiv_pos_as_xyz
  1  'x, y, z'
loop_
 _atom_site_type_symbol
 _atom_site_label
 _atom_site_symmetry_multiplicity
 _atom_site_fract_x
 _atom_site_fract_y
 _atom_site_fract_z
 _atom_site_occupancy
  Mo  Mo0  1  7.37515000  -0.00144832  0.05833180  1
  Mo  Mo1  1  1.80847000  1.89448000  3.60442000  1
  Mo  Mo2  1  1.87163000  -0.01203610  1.79168000  1
  Mo  Mo3  1  0.04660030  1.81337000  1.84210000  1
  Mo  Mo4  1  3.67339000  7.27773000  0.00383510  1
  Mo  Mo5  1  5.45701000  1.82578000  3.59133000  1
  Mo  Mo6  1  5.49561000  -0.04967860  1.83003000  1
  Mo  Mo7  1  3.57265000  1.77446000  1.81625000  1
  Mo  Mo8  1  0.07632720  3.61614000  3.69143000  1
  Mo  Mo9  1  1.76714000  5.45363000  3.64640000  1
  Mo  Mo10  1  1.76806000  3.71112000  1.79788000  1
  Mo  Mo11  1  -0.03132980  5.54215000  1.81624000  1
  Mo  Mo12  1  3.60993000  3.68060000  -0.00684827  1
  Mo  Mo13  1  5.41332000  5.43457000  0.01789580  1
  Mo  Mo14  1  5.45695000  3.60291000  1.84908000  1
  Mo  Mo15  1  3.57808000  5.37522000  1.76195000  1
