# generated using pymatgen
data_Mo
_symmetry_space_group_name_H-M   'P 1'
_cell_length_a   7.28500180
_cell_length_b   7.28500180
_cell_length_c   3.64250088
_cell_angle_alpha   90.00000000
_cell_angle_beta   90.00000000
_cell_angle_gamma   90.00000000
_symmetry_Int_Tables_number   1
_chemical_formula_structural   Mo
_chemical_formula_sum   Mo16
_cell_volume   193.31207935
_cell_formula_units_Z   16
loop_
 _symmetry_equiv_pos_site_id
 _symmetry_equiv_pos_as_xyz
  1  'x, y, z'
loop_
 _atom_site_type_symbol
 _atom_site_label
 _atom_site_symmetry_multiplicity
 _atom_site_fract_x
 _atom_site_fract_y
 _atom_site_fract_z
 _atom_site_occupancy
  Mo  Mo0  1  7.27293000  -0.02001510  0.00449854  1
  Mo  Mo1  1  1.80840000  1.75502000  3.73006000  1
  Mo  Mo2  1  1.75571000  0.02610210  1.81391000  1
  Mo  Mo3  1  0.02223270  1.88714000  1.91608000  1
  Mo  Mo4  1  3.71872000  7.26323000  -0.09301780  1
  Mo  Mo5  1  5.52048000  1.78885000  3.58141000  1
  Mo  Mo6  1  5.53401000  -0.01216980  1.73665000  1
  Mo  Mo7  1  3.62310000  1.79678000  1.88558000  1
  Mo  Mo8  1  0.01258410  3.53946000  3.68753000  1
  Mo  Mo9  1  1.79270000  5.53773000  3.67259000  1
  Mo  Mo10  1  1.76996000  3.61563000  1.84450000  1
  Mo  Mo11  1  0.00690707  5.43294000  1.85220000  1
  Mo  Mo12  1  3.54638000  3.69692000  0.01050200  1
  Mo  Mo13  1  5.50468000  5.37641000  -0.06131730  1
  Mo  Mo14  1  5.42925000  3.73126000  1.72900000  1
  Mo  Mo15  1  3.62096000  5.52372000  1.80183000  1
