# generated using pymatgen
data_Mo
_symmetry_space_group_name_H-M   'P 1'
_cell_length_a   7.28500180
_cell_length_b   7.28500180
_cell_length_c   3.64250088
_cell_angle_alpha   90.00000000
_cell_angle_beta   90.00000000
_cell_angle_gamma   90.00000000
_symmetry_Int_Tables_number   1
_chemical_formula_structural   Mo
_chemical_formula_sum   Mo16
_cell_volume   193.31207935
_cell_formula_units_Z   16
loop_
 _symmetry_equiv_pos_site_id
 _symmetry_equiv_pos_as_xyz
  1  'x, y, z'
loop_
 _atom_site_type_symbol
 _atom_site_label
 _atom_site_symmetry_multiplicity
 _atom_site_fract_x
 _atom_site_fract_y
 _atom_site_fract_z
 _atom_site_occupancy
  Mo  Mo0  1  7.24736000  -0.02670780  0.06009780  1
  Mo  Mo1  1  1.77259000  1.83392000  3.67414000  1
  Mo  Mo2  1  1.81139000  0.00684815  1.82534000  1
  Mo  Mo3  1  -0.00451552  1.93613000  1.86589000  1
  Mo  Mo4  1  3.62172000  7.28526000  -0.03929210  1
  Mo  Mo5  1  5.41808000  1.71175000  3.67661000  1
  Mo  Mo6  1  5.48501000  0.05348840  1.71115000  1
  Mo  Mo7  1  3.63633000  1.72092000  1.76473000  1
  Mo  Mo8  1  -0.01627290  3.63853000  3.70632000  1
  Mo  Mo9  1  1.83241000  5.45617000  3.62779000  1
  Mo  Mo10  1  1.86245000  3.67363000  1.84982000  1
  Mo  Mo11  1  -0.05646740  5.39712000  1.87609000  1
  Mo  Mo12  1  3.69315000  3.63662000  -0.04316510  1
  Mo  Mo13  1  5.45130000  5.49299000  -0.03749450  1
  Mo  Mo14  1  5.41345000  3.67417000  1.77557000  1
  Mo  Mo15  1  3.77102000  5.44816000  1.81839000  1
