# generated using pymatgen
data_Mo
_symmetry_space_group_name_H-M   'P 1'
_cell_length_a   7.28500180
_cell_length_b   7.28500180
_cell_length_c   3.64250088
_cell_angle_alpha   90.00000000
_cell_angle_beta   90.00000000
_cell_angle_gamma   90.00000000
_symmetry_Int_Tables_number   1
_chemical_formula_structural   Mo
_chemical_formula_sum   Mo16
_cell_volume   193.31207935
_cell_formula_units_Z   16
loop_
 _symmetry_equiv_pos_site_id
 _symmetry_equiv_pos_as_xyz
  1  'x, y, z'
loop_
 _atom_site_type_symbol
 _atom_site_label
 _atom_site_symmetry_multiplicity
 _atom_site_fract_x
 _atom_site_fract_y
 _atom_site_fract_z
 _atom_site_occupancy
  Mo  Mo0  1  7.26768000  0.01276710  0.00631747  1
  Mo  Mo1  1  1.84028000  1.84428000  3.63546000  1
  Mo  Mo2  1  1.73151000  0.03919080  1.81458000  1
  Mo  Mo3  1  -0.02019370  1.83736000  1.79394000  1
  Mo  Mo4  1  3.63527000  7.27227000  -0.00627998  1
  Mo  Mo5  1  5.45687000  1.76857000  3.72721000  1
  Mo  Mo6  1  5.52499000  -0.06749380  1.85146000  1
  Mo  Mo7  1  3.77794000  1.80400000  1.78019000  1
  Mo  Mo8  1  -0.12116900  3.67248000  3.66941000  1
  Mo  Mo9  1  1.81584000  5.49818000  3.50885000  1
  Mo  Mo10  1  1.76315000  3.58642000  1.79443000  1
  Mo  Mo11  1  0.04898770  5.48436000  1.88297000  1
  Mo  Mo12  1  3.64134000  3.60649000  -0.03105480  1
  Mo  Mo13  1  5.44642000  5.44768000  0.03612050  1
  Mo  Mo14  1  5.48574000  3.63675000  1.82664000  1
  Mo  Mo15  1  3.64435000  5.49569000  1.82176000  1
