# generated using pymatgen
data_Mo
_symmetry_space_group_name_H-M   'P 1'
_cell_length_a   7.28500180
_cell_length_b   7.28500180
_cell_length_c   3.64250088
_cell_angle_alpha   90.00000000
_cell_angle_beta   90.00000000
_cell_angle_gamma   90.00000000
_symmetry_Int_Tables_number   1
_chemical_formula_structural   Mo
_chemical_formula_sum   Mo16
_cell_volume   193.31207935
_cell_formula_units_Z   16
loop_
 _symmetry_equiv_pos_site_id
 _symmetry_equiv_pos_as_xyz
  1  'x, y, z'
loop_
 _atom_site_type_symbol
 _atom_site_label
 _atom_site_symmetry_multiplicity
 _atom_site_fract_x
 _atom_site_fract_y
 _atom_site_fract_z
 _atom_site_occupancy
  Mo  Mo0  1  7.32589000  0.01707590  0.03567090  1
  Mo  Mo1  1  1.82913000  1.82308000  3.56790000  1
  Mo  Mo2  1  1.71874000  0.04279250  1.80687000  1
  Mo  Mo3  1  -0.02358760  1.85767000  1.68964000  1
  Mo  Mo4  1  3.59921000  7.25909000  0.05500420  1
  Mo  Mo5  1  5.51539000  1.77403000  3.65756000  1
  Mo  Mo6  1  5.48671000  -0.05581040  1.80841000  1
  Mo  Mo7  1  3.62846000  1.76116000  1.88158000  1
  Mo  Mo8  1  0.03708170  3.70121000  3.58707000  1
  Mo  Mo9  1  1.79910000  5.44657000  3.60288000  1
  Mo  Mo10  1  1.76824000  3.64444000  1.82824000  1
  Mo  Mo11  1  0.02554030  5.42419000  1.79248000  1
  Mo  Mo12  1  3.57135000  3.57102000  0.01636390  1
  Mo  Mo13  1  5.51891000  5.49758000  0.06958950  1
  Mo  Mo14  1  5.45886000  3.66297000  1.81470000  1
  Mo  Mo15  1  3.67996000  5.51194000  1.89804000  1
