# generated using pymatgen
data_Mo
_symmetry_space_group_name_H-M   'P 1'
_cell_length_a   7.28500180
_cell_length_b   7.28500180
_cell_length_c   3.64250088
_cell_angle_alpha   90.00000000
_cell_angle_beta   90.00000000
_cell_angle_gamma   90.00000000
_symmetry_Int_Tables_number   1
_chemical_formula_structural   Mo
_chemical_formula_sum   Mo16
_cell_volume   193.31207935
_cell_formula_units_Z   16
loop_
 _symmetry_equiv_pos_site_id
 _symmetry_equiv_pos_as_xyz
  1  'x, y, z'
loop_
 _atom_site_type_symbol
 _atom_site_label
 _atom_site_symmetry_multiplicity
 _atom_site_fract_x
 _atom_site_fract_y
 _atom_site_fract_z
 _atom_site_occupancy
  Mo  Mo0  1  7.31262000  -0.06205810  0.05051650  1
  Mo  Mo1  1  1.76020000  1.76948000  3.67526000  1
  Mo  Mo2  1  1.80900000  -0.07163610  1.80849000  1
  Mo  Mo3  1  0.02198220  1.81739000  1.78477000  1
  Mo  Mo4  1  3.62963000  7.30203000  0.02671480  1
  Mo  Mo5  1  5.49047000  1.81309000  3.66161000  1
  Mo  Mo6  1  5.55959000  0.10378300  1.77993000  1
  Mo  Mo7  1  3.66987000  1.85904000  1.84391000  1
  Mo  Mo8  1  -0.03611780  3.53713000  3.61358000  1
  Mo  Mo9  1  1.76060000  5.48598000  3.61439000  1
  Mo  Mo10  1  1.77947000  3.65731000  1.81021000  1
  Mo  Mo11  1  -0.01890720  5.43408000  1.86765000  1
  Mo  Mo12  1  3.65143000  3.70753000  -0.01019480  1
  Mo  Mo13  1  5.45540000  5.47634000  -0.01916140  1
  Mo  Mo14  1  5.42799000  3.66580000  1.75144000  1
  Mo  Mo15  1  3.66577000  5.44370000  1.85288000  1
