# generated using pymatgen
data_Mo
_symmetry_space_group_name_H-M   'P 1'
_cell_length_a   7.28500180
_cell_length_b   7.28500180
_cell_length_c   3.64250088
_cell_angle_alpha   90.00000000
_cell_angle_beta   90.00000000
_cell_angle_gamma   90.00000000
_symmetry_Int_Tables_number   1
_chemical_formula_structural   Mo
_chemical_formula_sum   Mo16
_cell_volume   193.31207935
_cell_formula_units_Z   16
loop_
 _symmetry_equiv_pos_site_id
 _symmetry_equiv_pos_as_xyz
  1  'x, y, z'
loop_
 _atom_site_type_symbol
 _atom_site_label
 _atom_site_symmetry_multiplicity
 _atom_site_fract_x
 _atom_site_fract_y
 _atom_site_fract_z
 _atom_site_occupancy
  Mo  Mo0  1  7.23665000  0.07158920  0.00283862  1
  Mo  Mo1  1  1.87501000  1.75486000  3.67026000  1
  Mo  Mo2  1  1.84021000  0.01259510  1.82748000  1
  Mo  Mo3  1  0.05341400  1.89790000  1.85969000  1
  Mo  Mo4  1  3.68899000  7.19218000  -0.04136000  1
  Mo  Mo5  1  5.41996000  1.78240000  3.60212000  1
  Mo  Mo6  1  5.42239000  0.07363490  1.79794000  1
  Mo  Mo7  1  3.66811000  1.80274000  1.83812000  1
  Mo  Mo8  1  -0.06127900  3.63000000  3.62069000  1
  Mo  Mo9  1  1.80618000  5.52048000  3.74360000  1
  Mo  Mo10  1  1.86240000  3.73401000  1.82104000  1
  Mo  Mo11  1  -0.08452290  5.38391000  1.86622000  1
  Mo  Mo12  1  3.62549000  3.57887000  -0.02096260  1
  Mo  Mo13  1  5.51852000  5.43841000  -0.02804500  1
  Mo  Mo14  1  5.31643000  3.57432000  1.77991000  1
  Mo  Mo15  1  3.75106000  5.49109000  1.77245000  1
