# generated using pymatgen
data_Mo
_symmetry_space_group_name_H-M   'P 1'
_cell_length_a   7.27808089
_cell_length_b   7.27808089
_cell_length_c   3.63904047
_cell_angle_alpha   90.00000000
_cell_angle_beta   90.00000000
_cell_angle_gamma   90.00000000
_symmetry_Int_Tables_number   1
_chemical_formula_structural   Mo
_chemical_formula_sum   Mo16
_cell_volume   192.76165285
_cell_formula_units_Z   16
loop_
 _symmetry_equiv_pos_site_id
 _symmetry_equiv_pos_as_xyz
  1  'x, y, z'
loop_
 _atom_site_type_symbol
 _atom_site_label
 _atom_site_symmetry_multiplicity
 _atom_site_fract_x
 _atom_site_fract_y
 _atom_site_fract_z
 _atom_site_occupancy
  Mo  Mo0  1  -0.01758210  7.26822000  0.00429825  1
  Mo  Mo1  1  1.83160000  1.82239000  0.00496805  1
  Mo  Mo2  1  1.81479000  7.27910000  1.82234000  1
  Mo  Mo3  1  7.27525000  1.82126000  1.82045000  1
  Mo  Mo4  1  3.62675000  7.27193000  3.63150000  1
  Mo  Mo5  1  5.46147000  1.83157000  0.01109190  1
  Mo  Mo6  1  5.46997000  0.01712870  1.83289000  1
  Mo  Mo7  1  3.64684000  1.80874000  1.82164000  1
  Mo  Mo8  1  7.27874000  3.63543000  3.65580000  1
  Mo  Mo9  1  1.81868000  5.46690000  3.62830000  1
  Mo  Mo10  1  1.81285000  3.63722000  1.81729000  1
  Mo  Mo11  1  7.27980000  5.45075000  1.82676000  1
  Mo  Mo12  1  3.64757000  3.63978000  -0.00281868  1
  Mo  Mo13  1  5.45764000  5.46718000  3.62752000  1
  Mo  Mo14  1  5.45490000  3.63390000  1.80165000  1
  Mo  Mo15  1  3.64282000  5.45058000  1.80832000  1
