# generated using pymatgen
data_Mo
_symmetry_space_group_name_H-M   'P 1'
_cell_length_a   7.27806742
_cell_length_b   7.27806742
_cell_length_c   3.63903379
_cell_angle_alpha   90.00000000
_cell_angle_beta   90.00000000
_cell_angle_gamma   90.00000000
_symmetry_Int_Tables_number   1
_chemical_formula_structural   Mo
_chemical_formula_sum   Mo16
_cell_volume   192.76058556
_cell_formula_units_Z   16
loop_
 _symmetry_equiv_pos_site_id
 _symmetry_equiv_pos_as_xyz
  1  'x, y, z'
loop_
 _atom_site_type_symbol
 _atom_site_label
 _atom_site_symmetry_multiplicity
 _atom_site_fract_x
 _atom_site_fract_y
 _atom_site_fract_z
 _atom_site_occupancy
  Mo  Mo0  1  -0.00073917  7.26194000  3.66522000  1
  Mo  Mo1  1  1.83503000  1.82640000  -0.00659427  1
  Mo  Mo2  1  1.81943000  7.28896000  1.82956000  1
  Mo  Mo3  1  7.27670000  1.81807000  1.82161000  1
  Mo  Mo4  1  3.63962000  7.27661000  -0.02185550  1
  Mo  Mo5  1  5.46640000  1.83478000  0.01268480  1
  Mo  Mo6  1  5.43922000  -0.02417920  1.78705000  1
  Mo  Mo7  1  3.64335000  1.82734000  1.84281000  1
  Mo  Mo8  1  7.28437000  3.65432000  3.62096000  1
  Mo  Mo9  1  1.81941000  5.44817000  3.64077000  1
  Mo  Mo10  1  1.82041000  3.61956000  1.82980000  1
  Mo  Mo11  1  -0.01523900  5.45548000  1.80045000  1
  Mo  Mo12  1  3.63067000  3.64571000  3.61307000  1
  Mo  Mo13  1  5.46967000  5.47280000  3.65103000  1
  Mo  Mo14  1  5.44591000  3.62692000  1.82940000  1
  Mo  Mo15  1  3.64978000  5.46919000  1.83506000  1
