# generated using pymatgen
data_Mo
_symmetry_space_group_name_H-M   'P 1'
_cell_length_a   7.28500180
_cell_length_b   7.28500180
_cell_length_c   3.64250088
_cell_angle_alpha   90.00000000
_cell_angle_beta   90.00000000
_cell_angle_gamma   90.00000000
_symmetry_Int_Tables_number   1
_chemical_formula_structural   Mo
_chemical_formula_sum   Mo16
_cell_volume   193.31207935
_cell_formula_units_Z   16
loop_
 _symmetry_equiv_pos_site_id
 _symmetry_equiv_pos_as_xyz
  1  'x, y, z'
loop_
 _atom_site_type_symbol
 _atom_site_label
 _atom_site_symmetry_multiplicity
 _atom_site_fract_x
 _atom_site_fract_y
 _atom_site_fract_z
 _atom_site_occupancy
  Mo  Mo0  1  7.17352000  -0.00935225  -0.01453040  1
  Mo  Mo1  1  1.85230000  1.82583000  3.74626000  1
  Mo  Mo2  1  1.97473000  0.03149470  1.76215000  1
  Mo  Mo3  1  -0.03487110  1.80908000  1.89415000  1
  Mo  Mo4  1  3.73491000  7.27111000  -0.05917380  1
  Mo  Mo5  1  5.32072000  1.82523000  3.64191000  1
  Mo  Mo6  1  5.36551000  0.00697625  1.81771000  1
  Mo  Mo7  1  3.63238000  1.83243000  1.75811000  1
  Mo  Mo8  1  0.01370150  3.58476000  3.69413000  1
  Mo  Mo9  1  1.76529000  5.52026000  3.67737000  1
  Mo  Mo10  1  1.81390000  3.60627000  1.81558000  1
  Mo  Mo11  1  0.05889210  5.50927000  1.87655000  1
  Mo  Mo12  1  3.63293000  3.66907000  -0.01811050  1
  Mo  Mo13  1  5.54429000  5.41423000  -0.07254290  1
  Mo  Mo14  1  5.49310000  3.68650000  1.79553000  1
  Mo  Mo15  1  3.59769000  5.35584000  1.79692000  1
