# generated using pymatgen
data_Mo
_symmetry_space_group_name_H-M   'P 1'
_cell_length_a   7.28339199
_cell_length_b   7.28339199
_cell_length_c   3.64169598
_cell_angle_alpha   90.00000000
_cell_angle_beta   90.00000000
_cell_angle_gamma   90.00000000
_symmetry_Int_Tables_number   1
_chemical_formula_structural   Mo
_chemical_formula_sum   Mo16
_cell_volume   193.18395599
_cell_formula_units_Z   16
loop_
 _symmetry_equiv_pos_site_id
 _symmetry_equiv_pos_as_xyz
  1  'x, y, z'
loop_
 _atom_site_type_symbol
 _atom_site_label
 _atom_site_symmetry_multiplicity
 _atom_site_fract_x
 _atom_site_fract_y
 _atom_site_fract_z
 _atom_site_occupancy
  Mo  Mo0  1  -0.05736950  0.07894230  3.69241000  1
  Mo  Mo1  1  1.80094000  1.82359000  -0.03717720  1
  Mo  Mo2  1  1.86016000  7.27312000  1.80374000  1
  Mo  Mo3  1  -0.01340010  1.86932000  1.79043000  1
  Mo  Mo4  1  3.60454000  7.26367000  3.63979000  1
  Mo  Mo5  1  5.52503000  1.76804000  0.01314600  1
  Mo  Mo6  1  5.47486000  -0.05841370  1.77921000  1
  Mo  Mo7  1  3.69837000  1.71495000  1.76723000  1
  Mo  Mo8  1  7.31365000  3.55362000  -0.01581700  1
  Mo  Mo9  1  1.73690000  5.48987000  3.65139000  1
  Mo  Mo10  1  1.83813000  3.68134000  1.84739000  1
  Mo  Mo11  1  7.25064000  5.46957000  1.89418000  1
  Mo  Mo12  1  3.62185000  3.72342000  -0.06958190  1
  Mo  Mo13  1  5.51034000  5.45197000  -0.00526839  1
  Mo  Mo14  1  5.42786000  3.61738000  1.80806000  1
  Mo  Mo15  1  3.63150000  5.50362000  1.91117000  1
