# generated using pymatgen
data_Mo
_symmetry_space_group_name_H-M   'P 1'
_cell_length_a   7.28339199
_cell_length_b   7.28339199
_cell_length_c   3.64169598
_cell_angle_alpha   90.00000000
_cell_angle_beta   90.00000000
_cell_angle_gamma   90.00000000
_symmetry_Int_Tables_number   1
_chemical_formula_structural   Mo
_chemical_formula_sum   Mo16
_cell_volume   193.18395599
_cell_formula_units_Z   16
loop_
 _symmetry_equiv_pos_site_id
 _symmetry_equiv_pos_as_xyz
  1  'x, y, z'
loop_
 _atom_site_type_symbol
 _atom_site_label
 _atom_site_symmetry_multiplicity
 _atom_site_fract_x
 _atom_site_fract_y
 _atom_site_fract_z
 _atom_site_occupancy
  Mo  Mo0  1  -0.01710590  -0.04805550  3.70690000  1
  Mo  Mo1  1  1.79831000  1.82046000  0.01055180  1
  Mo  Mo2  1  1.80365000  7.32257000  1.80416000  1
  Mo  Mo3  1  -0.00421240  1.71857000  1.81966000  1
  Mo  Mo4  1  3.59254000  7.22294000  3.62795000  1
  Mo  Mo5  1  5.43935000  1.82382000  0.00125946  1
  Mo  Mo6  1  5.49537000  -0.03326390  1.85879000  1
  Mo  Mo7  1  3.64466000  1.87428000  1.74367000  1
  Mo  Mo8  1  7.30109000  3.75186000  0.03005310  1
  Mo  Mo9  1  1.78706000  5.45343000  3.61086000  1
  Mo  Mo10  1  1.76125000  3.69393000  1.86128000  1
  Mo  Mo11  1  7.30342000  5.54518000  1.79592000  1
  Mo  Mo12  1  3.74155000  3.65300000  -0.10150600  1
  Mo  Mo13  1  5.39328000  5.45762000  0.01014440  1
  Mo  Mo14  1  5.56382000  3.49740000  1.90353000  1
  Mo  Mo15  1  3.61998000  5.47024000  1.78710000  1
