# generated using pymatgen
data_Mo
_symmetry_space_group_name_H-M   'P 1'
_cell_length_a   7.28339199
_cell_length_b   7.28339199
_cell_length_c   3.64169598
_cell_angle_alpha   90.00000000
_cell_angle_beta   90.00000000
_cell_angle_gamma   90.00000000
_symmetry_Int_Tables_number   1
_chemical_formula_structural   Mo
_chemical_formula_sum   Mo16
_cell_volume   193.18395599
_cell_formula_units_Z   16
loop_
 _symmetry_equiv_pos_site_id
 _symmetry_equiv_pos_as_xyz
  1  'x, y, z'
loop_
 _atom_site_type_symbol
 _atom_site_label
 _atom_site_symmetry_multiplicity
 _atom_site_fract_x
 _atom_site_fract_y
 _atom_site_fract_z
 _atom_site_occupancy
  Mo  Mo0  1  0.04253420  0.08019100  3.57507000  1
  Mo  Mo1  1  1.82202000  1.80652000  0.01079390  1
  Mo  Mo2  1  1.82208000  7.22797000  1.84013000  1
  Mo  Mo3  1  0.01827750  1.81220000  1.84924000  1
  Mo  Mo4  1  3.68983000  7.24707000  3.64661000  1
  Mo  Mo5  1  5.42053000  1.88759000  0.04236550  1
  Mo  Mo6  1  5.47621000  -0.02516020  1.79502000  1
  Mo  Mo7  1  3.55840000  1.78640000  1.79244000  1
  Mo  Mo8  1  7.24937000  3.63808000  -0.04688510  1
  Mo  Mo9  1  1.88418000  5.48817000  3.63330000  1
  Mo  Mo10  1  1.78075000  3.69112000  1.82700000  1
  Mo  Mo11  1  7.24846000  5.49218000  1.86276000  1
  Mo  Mo12  1  3.64923000  3.62033000  -0.01220620  1
  Mo  Mo13  1  5.43124000  5.38414000  0.04624570  1
  Mo  Mo14  1  5.47320000  3.64547000  1.81360000  1
  Mo  Mo15  1  3.65768000  5.44174000  1.79482000  1
