# generated using pymatgen
data_Mo
_symmetry_space_group_name_H-M   'P 1'
_cell_length_a   7.28339199
_cell_length_b   7.28339199
_cell_length_c   3.64169598
_cell_angle_alpha   90.00000000
_cell_angle_beta   90.00000000
_cell_angle_gamma   90.00000000
_symmetry_Int_Tables_number   1
_chemical_formula_structural   Mo
_chemical_formula_sum   Mo16
_cell_volume   193.18395599
_cell_formula_units_Z   16
loop_
 _symmetry_equiv_pos_site_id
 _symmetry_equiv_pos_as_xyz
  1  'x, y, z'
loop_
 _atom_site_type_symbol
 _atom_site_label
 _atom_site_symmetry_multiplicity
 _atom_site_fract_x
 _atom_site_fract_y
 _atom_site_fract_z
 _atom_site_occupancy
  Mo  Mo0  1  -0.04229990  0.02739220  3.66822000  1
  Mo  Mo1  1  1.78994000  1.79966000  0.05555230  1
  Mo  Mo2  1  1.80634000  7.24387000  1.82283000  1
  Mo  Mo3  1  0.00709238  1.84756000  1.79998000  1
  Mo  Mo4  1  3.61945000  7.24709000  3.65075000  1
  Mo  Mo5  1  5.53940000  1.81885000  0.05499210  1
  Mo  Mo6  1  5.45832000  -0.10141700  1.83209000  1
  Mo  Mo7  1  3.69685000  1.79188000  1.78490000  1
  Mo  Mo8  1  7.27278000  3.59205000  -0.05662990  1
  Mo  Mo9  1  1.73854000  5.49027000  3.60932000  1
  Mo  Mo10  1  1.85893000  3.66056000  1.77208000  1
  Mo  Mo11  1  7.31201000  5.50880000  1.86012000  1
  Mo  Mo12  1  3.77885000  3.67260000  -0.01185740  1
  Mo  Mo13  1  5.46565000  5.48971000  -0.01456950  1
  Mo  Mo14  1  5.35068000  3.65240000  1.85685000  1
  Mo  Mo15  1  3.57147000  5.48273000  1.78567000  1
