# generated using pymatgen
data_Mo
_symmetry_space_group_name_H-M   'P 1'
_cell_length_a   7.28339199
_cell_length_b   7.28339199
_cell_length_c   3.64169598
_cell_angle_alpha   90.00000000
_cell_angle_beta   90.00000000
_cell_angle_gamma   90.00000000
_symmetry_Int_Tables_number   1
_chemical_formula_structural   Mo
_chemical_formula_sum   Mo16
_cell_volume   193.18395599
_cell_formula_units_Z   16
loop_
 _symmetry_equiv_pos_site_id
 _symmetry_equiv_pos_as_xyz
  1  'x, y, z'
loop_
 _atom_site_type_symbol
 _atom_site_label
 _atom_site_symmetry_multiplicity
 _atom_site_fract_x
 _atom_site_fract_y
 _atom_site_fract_z
 _atom_site_occupancy
  Mo  Mo0  1  0.04465910  0.05721160  3.65031000  1
  Mo  Mo1  1  1.76085000  1.83522000  0.05964420  1
  Mo  Mo2  1  1.91273000  7.28498000  1.81156000  1
  Mo  Mo3  1  -0.08808890  1.93450000  1.76359000  1
  Mo  Mo4  1  3.54445000  7.37222000  3.64274000  1
  Mo  Mo5  1  5.47324000  1.76973000  -0.03459270  1
  Mo  Mo6  1  5.50988000  -0.08445790  1.75584000  1
  Mo  Mo7  1  3.64079000  1.79372000  1.81179000  1
  Mo  Mo8  1  7.24410000  3.54147000  -0.02442730  1
  Mo  Mo9  1  1.84756000  5.37539000  3.64201000  1
  Mo  Mo10  1  1.81374000  3.66325000  1.91023000  1
  Mo  Mo11  1  7.36516000  5.47952000  1.82326000  1
  Mo  Mo12  1  3.70618000  3.61422000  0.03285450  1
  Mo  Mo13  1  5.50017000  5.48822000  -0.05168270  1
  Mo  Mo14  1  5.32704000  3.66296000  1.86940000  1
  Mo  Mo15  1  3.62153000  5.43585000  1.80779000  1
