# generated using pymatgen
data_Mo
_symmetry_space_group_name_H-M   'P 1'
_cell_length_a   7.28339199
_cell_length_b   7.28339199
_cell_length_c   3.64169598
_cell_angle_alpha   90.00000000
_cell_angle_beta   90.00000000
_cell_angle_gamma   90.00000000
_symmetry_Int_Tables_number   1
_chemical_formula_structural   Mo
_chemical_formula_sum   Mo16
_cell_volume   193.18395599
_cell_formula_units_Z   16
loop_
 _symmetry_equiv_pos_site_id
 _symmetry_equiv_pos_as_xyz
  1  'x, y, z'
loop_
 _atom_site_type_symbol
 _atom_site_label
 _atom_site_symmetry_multiplicity
 _atom_site_fract_x
 _atom_site_fract_y
 _atom_site_fract_z
 _atom_site_occupancy
  Mo  Mo0  1  -0.02262950  -0.00686119  3.68957000  1
  Mo  Mo1  1  1.82913000  1.74127000  0.00485714  1
  Mo  Mo2  1  1.85470000  7.26624000  1.79105000  1
  Mo  Mo3  1  0.05523240  1.84233000  1.84720000  1
  Mo  Mo4  1  3.62573000  7.16919000  3.57075000  1
  Mo  Mo5  1  5.48592000  1.86137000  0.00433635  1
  Mo  Mo6  1  5.44470000  0.08720480  1.77712000  1
  Mo  Mo7  1  3.65694000  1.85890000  1.85093000  1
  Mo  Mo8  1  7.27025000  3.68051000  0.05629110  1
  Mo  Mo9  1  1.78623000  5.46704000  3.65614000  1
  Mo  Mo10  1  1.84680000  3.64018000  1.77792000  1
  Mo  Mo11  1  7.24670000  5.49255000  1.74759000  1
  Mo  Mo12  1  3.56992000  3.71037000  0.08357060  1
  Mo  Mo13  1  5.46128000  5.44896000  -0.09095270  1
  Mo  Mo14  1  5.41898000  3.61778000  1.87716000  1
  Mo  Mo15  1  3.69413000  5.34697000  1.82677000  1
