# generated using pymatgen
data_Mo
_symmetry_space_group_name_H-M   'P 1'
_cell_length_a   7.28339199
_cell_length_b   7.28339199
_cell_length_c   3.64169598
_cell_angle_alpha   90.00000000
_cell_angle_beta   90.00000000
_cell_angle_gamma   90.00000000
_symmetry_Int_Tables_number   1
_chemical_formula_structural   Mo
_chemical_formula_sum   Mo16
_cell_volume   193.18395599
_cell_formula_units_Z   16
loop_
 _symmetry_equiv_pos_site_id
 _symmetry_equiv_pos_as_xyz
  1  'x, y, z'
loop_
 _atom_site_type_symbol
 _atom_site_label
 _atom_site_symmetry_multiplicity
 _atom_site_fract_x
 _atom_site_fract_y
 _atom_site_fract_z
 _atom_site_occupancy
  Mo  Mo0  1  -0.04415360  0.06652670  3.55103000  1
  Mo  Mo1  1  1.76298000  1.75999000  0.07713670  1
  Mo  Mo2  1  1.80803000  7.27399000  1.82777000  1
  Mo  Mo3  1  0.00293964  1.78538000  1.76466000  1
  Mo  Mo4  1  3.67842000  7.31574000  3.60751000  1
  Mo  Mo5  1  5.53408000  1.92333000  0.01306520  1
  Mo  Mo6  1  5.46805000  0.02487660  1.76564000  1
  Mo  Mo7  1  3.56403000  1.83833000  1.77481000  1
  Mo  Mo8  1  7.28070000  3.60360000  -0.06323660  1
  Mo  Mo9  1  1.82605000  5.49931000  3.69587000  1
  Mo  Mo10  1  1.88840000  3.57996000  1.80978000  1
  Mo  Mo11  1  7.34970000  5.35986000  1.90439000  1
  Mo  Mo12  1  3.64373000  3.66390000  0.06991970  1
  Mo  Mo13  1  5.54282000  5.41575000  -0.01061080  1
  Mo  Mo14  1  5.34255000  3.64888000  1.82677000  1
  Mo  Mo15  1  3.57567000  5.46458000  1.85579000  1
