# generated using pymatgen
data_Mo
_symmetry_space_group_name_H-M   'P 1'
_cell_length_a   7.28339199
_cell_length_b   7.28339199
_cell_length_c   3.64169598
_cell_angle_alpha   90.00000000
_cell_angle_beta   90.00000000
_cell_angle_gamma   90.00000000
_symmetry_Int_Tables_number   1
_chemical_formula_structural   Mo
_chemical_formula_sum   Mo16
_cell_volume   193.18395599
_cell_formula_units_Z   16
loop_
 _symmetry_equiv_pos_site_id
 _symmetry_equiv_pos_as_xyz
  1  'x, y, z'
loop_
 _atom_site_type_symbol
 _atom_site_label
 _atom_site_symmetry_multiplicity
 _atom_site_fract_x
 _atom_site_fract_y
 _atom_site_fract_z
 _atom_site_occupancy
  Mo  Mo0  1  0.03754540  -0.05291680  3.65901000  1
  Mo  Mo1  1  1.81747000  1.93586000  0.02249800  1
  Mo  Mo2  1  1.84068000  7.37378000  1.84718000  1
  Mo  Mo3  1  0.02424420  1.83098000  1.94902000  1
  Mo  Mo4  1  3.59972000  7.23989000  3.57347000  1
  Mo  Mo5  1  5.50114000  1.81267000  0.08340190  1
  Mo  Mo6  1  5.34539000  -0.02111830  1.88912000  1
  Mo  Mo7  1  3.65153000  1.81421000  1.78474000  1
  Mo  Mo8  1  7.21315000  3.75569000  0.03407810  1
  Mo  Mo9  1  1.83015000  5.45797000  3.58449000  1
  Mo  Mo10  1  1.92448000  3.64732000  1.71389000  1
  Mo  Mo11  1  7.15710000  5.38646000  1.83100000  1
  Mo  Mo12  1  3.67408000  3.58678000  0.00207802  1
  Mo  Mo13  1  5.42869000  5.43118000  -0.03123770  1
  Mo  Mo14  1  5.53603000  3.59713000  1.80176000  1
  Mo  Mo15  1  3.64260000  5.42811000  1.72580000  1
