# generated using pymatgen
data_Mo
_symmetry_space_group_name_H-M   'P 1'
_cell_length_a   7.28339199
_cell_length_b   7.28339199
_cell_length_c   3.64169598
_cell_angle_alpha   90.00000000
_cell_angle_beta   90.00000000
_cell_angle_gamma   90.00000000
_symmetry_Int_Tables_number   1
_chemical_formula_structural   Mo
_chemical_formula_sum   Mo16
_cell_volume   193.18395599
_cell_formula_units_Z   16
loop_
 _symmetry_equiv_pos_site_id
 _symmetry_equiv_pos_as_xyz
  1  'x, y, z'
loop_
 _atom_site_type_symbol
 _atom_site_label
 _atom_site_symmetry_multiplicity
 _atom_site_fract_x
 _atom_site_fract_y
 _atom_site_fract_z
 _atom_site_occupancy
  Mo  Mo0  1  0.04063350  0.02020450  3.63855000  1
  Mo  Mo1  1  1.77227000  1.86354000  -0.01292300  1
  Mo  Mo2  1  1.75736000  7.23070000  1.86521000  1
  Mo  Mo3  1  0.00307461  1.78984000  1.85137000  1
  Mo  Mo4  1  3.62205000  7.29379000  3.69795000  1
  Mo  Mo5  1  5.61308000  1.74162000  -0.05511360  1
  Mo  Mo6  1  5.42073000  -0.02742040  1.86835000  1
  Mo  Mo7  1  3.69323000  1.74602000  1.81311000  1
  Mo  Mo8  1  7.30226000  3.56930000  -0.00812072  1
  Mo  Mo9  1  1.83330000  5.55095000  3.60895000  1
  Mo  Mo10  1  1.83966000  3.69919000  1.76613000  1
  Mo  Mo11  1  7.25129000  5.55216000  1.83674000  1
  Mo  Mo12  1  3.56166000  3.60405000  -0.02928140  1
  Mo  Mo13  1  5.44608000  5.41047000  0.02871240  1
  Mo  Mo14  1  5.45277000  3.67808000  1.74791000  1
  Mo  Mo15  1  3.61454000  5.50149000  1.85275000  1
