# generated using pymatgen
data_Mo
_symmetry_space_group_name_H-M   'P 1'
_cell_length_a   7.27806742
_cell_length_b   7.27806742
_cell_length_c   3.63903379
_cell_angle_alpha   90.00000000
_cell_angle_beta   90.00000000
_cell_angle_gamma   90.00000000
_symmetry_Int_Tables_number   1
_chemical_formula_structural   Mo
_chemical_formula_sum   Mo16
_cell_volume   192.76058556
_cell_formula_units_Z   16
loop_
 _symmetry_equiv_pos_site_id
 _symmetry_equiv_pos_as_xyz
  1  'x, y, z'
loop_
 _atom_site_type_symbol
 _atom_site_label
 _atom_site_symmetry_multiplicity
 _atom_site_fract_x
 _atom_site_fract_y
 _atom_site_fract_z
 _atom_site_occupancy
  Mo  Mo0  1  0.01034760  7.29419000  3.65492000  1
  Mo  Mo1  1  1.81876000  1.79750000  0.00305528  1
  Mo  Mo2  1  1.82566000  7.26950000  1.84413000  1
  Mo  Mo3  1  7.26855000  1.82722000  1.82045000  1
  Mo  Mo4  1  3.64402000  7.28405000  0.00749292  1
  Mo  Mo5  1  5.47019000  1.82190000  0.01457630  1
  Mo  Mo6  1  5.45170000  -0.01088800  1.80096000  1
  Mo  Mo7  1  3.66277000  1.82632000  1.80897000  1
  Mo  Mo8  1  7.27408000  3.63450000  3.60813000  1
  Mo  Mo9  1  1.82647000  5.45666000  3.64001000  1
  Mo  Mo10  1  1.82052000  3.66947000  1.80334000  1
  Mo  Mo11  1  -0.00733638  5.45644000  1.81695000  1
  Mo  Mo12  1  3.62039000  3.64391000  3.65439000  1
  Mo  Mo13  1  5.46935000  5.44272000  3.64808000  1
  Mo  Mo14  1  5.43273000  3.63727000  1.81572000  1
  Mo  Mo15  1  3.63579000  5.45131000  1.80986000  1
