# generated using pymatgen
data_Mo
_symmetry_space_group_name_H-M   'P 1'
_cell_length_a   7.28339199
_cell_length_b   7.28339199
_cell_length_c   3.64169598
_cell_angle_alpha   90.00000000
_cell_angle_beta   90.00000000
_cell_angle_gamma   90.00000000
_symmetry_Int_Tables_number   1
_chemical_formula_structural   Mo
_chemical_formula_sum   Mo16
_cell_volume   193.18395599
_cell_formula_units_Z   16
loop_
 _symmetry_equiv_pos_site_id
 _symmetry_equiv_pos_as_xyz
  1  'x, y, z'
loop_
 _atom_site_type_symbol
 _atom_site_label
 _atom_site_symmetry_multiplicity
 _atom_site_fract_x
 _atom_site_fract_y
 _atom_site_fract_z
 _atom_site_occupancy
  Mo  Mo0  1  0.08538510  0.05010590  3.59863000  1
  Mo  Mo1  1  1.81495000  1.92112000  -0.07221770  1
  Mo  Mo2  1  1.76283000  7.22733000  1.79309000  1
  Mo  Mo3  1  -0.09430400  1.78881000  1.84167000  1
  Mo  Mo4  1  3.60397000  7.27023000  3.63727000  1
  Mo  Mo5  1  5.43792000  1.83632000  -0.02249520  1
  Mo  Mo6  1  5.37600000  0.08347570  1.82807000  1
  Mo  Mo7  1  3.66304000  1.85612000  1.79178000  1
  Mo  Mo8  1  7.19096000  3.54103000  0.08959430  1
  Mo  Mo9  1  1.88950000  5.31687000  3.65342000  1
  Mo  Mo10  1  1.88972000  3.61874000  1.79862000  1
  Mo  Mo11  1  7.25766000  5.46350000  1.82931000  1
  Mo  Mo12  1  3.65416000  3.66374000  0.05195550  1
  Mo  Mo13  1  5.53903000  5.45854000  0.05575280  1
  Mo  Mo14  1  5.44817000  3.71566000  1.82469000  1
  Mo  Mo15  1  3.70500000  5.41243000  1.77118000  1
