# generated using pymatgen
data_Mo
_symmetry_space_group_name_H-M   'P 1'
_cell_length_a   7.28339199
_cell_length_b   7.28339199
_cell_length_c   3.64169598
_cell_angle_alpha   90.00000000
_cell_angle_beta   90.00000000
_cell_angle_gamma   90.00000000
_symmetry_Int_Tables_number   1
_chemical_formula_structural   Mo
_chemical_formula_sum   Mo16
_cell_volume   193.18395599
_cell_formula_units_Z   16
loop_
 _symmetry_equiv_pos_site_id
 _symmetry_equiv_pos_as_xyz
  1  'x, y, z'
loop_
 _atom_site_type_symbol
 _atom_site_label
 _atom_site_symmetry_multiplicity
 _atom_site_fract_x
 _atom_site_fract_y
 _atom_site_fract_z
 _atom_site_occupancy
  Mo  Mo0  1  -0.04433980  0.04723780  3.63269000  1
  Mo  Mo1  1  1.92914000  1.88414000  0.12770700  1
  Mo  Mo2  1  1.86037000  7.25594000  1.81040000  1
  Mo  Mo3  1  0.04196670  1.87327000  1.84371000  1
  Mo  Mo4  1  3.59680000  7.28020000  3.71072000  1
  Mo  Mo5  1  5.42331000  1.82819000  0.04887210  1
  Mo  Mo6  1  5.48379000  -0.10414900  1.79439000  1
  Mo  Mo7  1  3.59491000  1.80687000  1.84873000  1
  Mo  Mo8  1  7.27046000  3.61836000  -0.07855420  1
  Mo  Mo9  1  1.73374000  5.48385000  3.62487000  1
  Mo  Mo10  1  1.76439000  3.67875000  1.83846000  1
  Mo  Mo11  1  7.23920000  5.40993000  1.78768000  1
  Mo  Mo12  1  3.77598000  3.61091000  -0.06513850  1
  Mo  Mo13  1  5.45310000  5.42720000  -0.06622830  1
  Mo  Mo14  1  5.49727000  3.69251000  1.80433000  1
  Mo  Mo15  1  3.60391000  5.43079000  1.80767000  1
