# generated using pymatgen
data_Mo
_symmetry_space_group_name_H-M   'P 1'
_cell_length_a   7.28339199
_cell_length_b   7.28339199
_cell_length_c   3.64169598
_cell_angle_alpha   90.00000000
_cell_angle_beta   90.00000000
_cell_angle_gamma   90.00000000
_symmetry_Int_Tables_number   1
_chemical_formula_structural   Mo
_chemical_formula_sum   Mo16
_cell_volume   193.18395599
_cell_formula_units_Z   16
loop_
 _symmetry_equiv_pos_site_id
 _symmetry_equiv_pos_as_xyz
  1  'x, y, z'
loop_
 _atom_site_type_symbol
 _atom_site_label
 _atom_site_symmetry_multiplicity
 _atom_site_fract_x
 _atom_site_fract_y
 _atom_site_fract_z
 _atom_site_occupancy
  Mo  Mo0  1  0.02314510  -0.03222180  3.64154000  1
  Mo  Mo1  1  1.77211000  1.80368000  0.05732060  1
  Mo  Mo2  1  1.94024000  7.34052000  1.83809000  1
  Mo  Mo3  1  -0.05453580  1.76279000  1.73232000  1
  Mo  Mo4  1  3.58018000  7.35320000  3.71948000  1
  Mo  Mo5  1  5.43566000  1.87269000  -0.04666630  1
  Mo  Mo6  1  5.51017000  0.02691050  1.75286000  1
  Mo  Mo7  1  3.66544000  1.85785000  1.81251000  1
  Mo  Mo8  1  7.23976000  3.75511000  0.01569640  1
  Mo  Mo9  1  1.85583000  5.32592000  3.62884000  1
  Mo  Mo10  1  1.82021000  3.58456000  1.91096000  1
  Mo  Mo11  1  7.28865000  5.48983000  1.79899000  1
  Mo  Mo12  1  3.70172000  3.62902000  -0.04253350  1
  Mo  Mo13  1  5.39818000  5.47569000  -0.03903700  1
  Mo  Mo14  1  5.42294000  3.56926000  1.83488000  1
  Mo  Mo15  1  3.62429000  5.40918000  1.85505000  1
