# generated using pymatgen
data_Mo
_symmetry_space_group_name_H-M   'P 1'
_cell_length_a   7.28339199
_cell_length_b   7.28339199
_cell_length_c   3.64169598
_cell_angle_alpha   90.00000000
_cell_angle_beta   90.00000000
_cell_angle_gamma   90.00000000
_symmetry_Int_Tables_number   1
_chemical_formula_structural   Mo
_chemical_formula_sum   Mo16
_cell_volume   193.18395599
_cell_formula_units_Z   16
loop_
 _symmetry_equiv_pos_site_id
 _symmetry_equiv_pos_as_xyz
  1  'x, y, z'
loop_
 _atom_site_type_symbol
 _atom_site_label
 _atom_site_symmetry_multiplicity
 _atom_site_fract_x
 _atom_site_fract_y
 _atom_site_fract_z
 _atom_site_occupancy
  Mo  Mo0  1  0.05475760  -0.03308430  3.68091000  1
  Mo  Mo1  1  1.84640000  1.86843000  -0.00831947  1
  Mo  Mo2  1  1.80749000  7.38256000  1.84351000  1
  Mo  Mo3  1  0.01481510  1.79803000  1.91479000  1
  Mo  Mo4  1  3.60511000  7.18982000  3.65664000  1
  Mo  Mo5  1  5.46183000  1.75740000  0.00255877  1
  Mo  Mo6  1  5.38896000  -0.00977892  1.88850000  1
  Mo  Mo7  1  3.71797000  1.83623000  1.83033000  1
  Mo  Mo8  1  7.26269000  3.67943000  0.08735820  1
  Mo  Mo9  1  1.74874000  5.43323000  3.54278000  1
  Mo  Mo10  1  1.83801000  3.64670000  1.76345000  1
  Mo  Mo11  1  7.23587000  5.47344000  1.77736000  1
  Mo  Mo12  1  3.57738000  3.73233000  -0.03972350  1
  Mo  Mo13  1  5.51387000  5.41788000  0.01224920  1
  Mo  Mo14  1  5.51474000  3.60052000  1.78071000  1
  Mo  Mo15  1  3.63536000  5.45086000  1.73721000  1
