# generated using pymatgen
data_Mo
_symmetry_space_group_name_H-M   'P 1'
_cell_length_a   7.28339199
_cell_length_b   7.28339199
_cell_length_c   3.64169598
_cell_angle_alpha   90.00000000
_cell_angle_beta   90.00000000
_cell_angle_gamma   90.00000000
_symmetry_Int_Tables_number   1
_chemical_formula_structural   Mo
_chemical_formula_sum   Mo16
_cell_volume   193.18395599
_cell_formula_units_Z   16
loop_
 _symmetry_equiv_pos_site_id
 _symmetry_equiv_pos_as_xyz
  1  'x, y, z'
loop_
 _atom_site_type_symbol
 _atom_site_label
 _atom_site_symmetry_multiplicity
 _atom_site_fract_x
 _atom_site_fract_y
 _atom_site_fract_z
 _atom_site_occupancy
  Mo  Mo0  1  -0.06675110  0.01389320  3.63702000  1
  Mo  Mo1  1  1.80303000  1.79077000  0.00675805  1
  Mo  Mo2  1  1.85640000  7.36725000  1.86482000  1
  Mo  Mo3  1  0.03639110  1.83162000  1.69317000  1
  Mo  Mo4  1  3.63878000  7.23578000  3.69309000  1
  Mo  Mo5  1  5.47919000  1.74316000  -0.05140700  1
  Mo  Mo6  1  5.51311000  -0.02870180  1.80407000  1
  Mo  Mo7  1  3.63432000  1.78895000  1.80105000  1
  Mo  Mo8  1  7.30359000  3.71213000  -0.06964950  1
  Mo  Mo9  1  1.80667000  5.48057000  3.74149000  1
  Mo  Mo10  1  1.77367000  3.64279000  1.85442000  1
  Mo  Mo11  1  7.28988000  5.42472000  1.82115000  1
  Mo  Mo12  1  3.69604000  3.66878000  -0.02140190  1
  Mo  Mo13  1  5.37767000  5.53834000  0.00272234  1
  Mo  Mo14  1  5.50176000  3.54416000  1.79184000  1
  Mo  Mo15  1  3.58024000  5.46981000  1.90116000  1
