# generated using pymatgen
data_Mo
_symmetry_space_group_name_H-M   'P 1'
_cell_length_a   7.28339199
_cell_length_b   7.28339199
_cell_length_c   3.64169598
_cell_angle_alpha   90.00000000
_cell_angle_beta   90.00000000
_cell_angle_gamma   90.00000000
_symmetry_Int_Tables_number   1
_chemical_formula_structural   Mo
_chemical_formula_sum   Mo16
_cell_volume   193.18395599
_cell_formula_units_Z   16
loop_
 _symmetry_equiv_pos_site_id
 _symmetry_equiv_pos_as_xyz
  1  'x, y, z'
loop_
 _atom_site_type_symbol
 _atom_site_label
 _atom_site_symmetry_multiplicity
 _atom_site_fract_x
 _atom_site_fract_y
 _atom_site_fract_z
 _atom_site_occupancy
  Mo  Mo0  1  -0.09866860  0.05519270  3.55008000  1
  Mo  Mo1  1  1.82629000  1.86360000  0.03443670  1
  Mo  Mo2  1  1.87020000  7.27627000  1.81443000  1
  Mo  Mo3  1  -0.00642318  1.84243000  1.80937000  1
  Mo  Mo4  1  3.75578000  7.28503000  3.67036000  1
  Mo  Mo5  1  5.48299000  1.84254000  0.01764140  1
  Mo  Mo6  1  5.38312000  -0.01412480  1.88755000  1
  Mo  Mo7  1  3.57549000  1.80651000  1.72106000  1
  Mo  Mo8  1  7.29712000  3.68011000  -0.05220420  1
  Mo  Mo9  1  1.79634000  5.52555000  3.67745000  1
  Mo  Mo10  1  1.86663000  3.66840000  1.77336000  1
  Mo  Mo11  1  7.30137000  5.33056000  1.92084000  1
  Mo  Mo12  1  3.62868000  3.62202000  -0.02482690  1
  Mo  Mo13  1  5.55452000  5.41017000  0.04430880  1
  Mo  Mo14  1  5.39540000  3.57254000  1.75433000  1
  Mo  Mo15  1  3.59517000  5.45720000  1.87212000  1
