# generated using pymatgen
data_Mo
_symmetry_space_group_name_H-M   'P 1'
_cell_length_a   7.28339199
_cell_length_b   7.28339199
_cell_length_c   3.64169598
_cell_angle_alpha   90.00000000
_cell_angle_beta   90.00000000
_cell_angle_gamma   90.00000000
_symmetry_Int_Tables_number   1
_chemical_formula_structural   Mo
_chemical_formula_sum   Mo16
_cell_volume   193.18395599
_cell_formula_units_Z   16
loop_
 _symmetry_equiv_pos_site_id
 _symmetry_equiv_pos_as_xyz
  1  'x, y, z'
loop_
 _atom_site_type_symbol
 _atom_site_label
 _atom_site_symmetry_multiplicity
 _atom_site_fract_x
 _atom_site_fract_y
 _atom_site_fract_z
 _atom_site_occupancy
  Mo  Mo0  1  0.00438981  -0.05109270  3.65177000  1
  Mo  Mo1  1  1.77181000  1.74052000  -0.07587050  1
  Mo  Mo2  1  1.77024000  7.33882000  1.86775000  1
  Mo  Mo3  1  -0.06270620  1.76576000  1.80314000  1
  Mo  Mo4  1  3.80178000  7.28009000  3.55465000  1
  Mo  Mo5  1  5.39352000  1.92917000  -0.05840010  1
  Mo  Mo6  1  5.39986000  0.05372690  1.86600000  1
  Mo  Mo7  1  3.65949000  1.88676000  1.76098000  1
  Mo  Mo8  1  7.28725000  3.73337000  0.01551750  1
  Mo  Mo9  1  1.87379000  5.44701000  3.69912000  1
  Mo  Mo10  1  1.84342000  3.53820000  1.78390000  1
  Mo  Mo11  1  7.28951000  5.38852000  1.90626000  1
  Mo  Mo12  1  3.57589000  3.68609000  0.07287940  1
  Mo  Mo13  1  5.50535000  5.44545000  0.02621290  1
  Mo  Mo14  1  5.45411000  3.65617000  1.80412000  1
  Mo  Mo15  1  3.65632000  5.38544000  1.79228000  1
