# generated using pymatgen
data_Mo
_symmetry_space_group_name_H-M   'P 1'
_cell_length_a   7.27806742
_cell_length_b   7.27806742
_cell_length_c   3.63903379
_cell_angle_alpha   90.00000000
_cell_angle_beta   90.00000000
_cell_angle_gamma   90.00000000
_symmetry_Int_Tables_number   1
_chemical_formula_structural   Mo
_chemical_formula_sum   Mo16
_cell_volume   192.76058556
_cell_formula_units_Z   16
loop_
 _symmetry_equiv_pos_site_id
 _symmetry_equiv_pos_as_xyz
  1  'x, y, z'
loop_
 _atom_site_type_symbol
 _atom_site_label
 _atom_site_symmetry_multiplicity
 _atom_site_fract_x
 _atom_site_fract_y
 _atom_site_fract_z
 _atom_site_occupancy
  Mo  Mo0  1  -0.00033608  7.28918000  3.67243000  1
  Mo  Mo1  1  1.81419000  1.81921000  -0.02207020  1
  Mo  Mo2  1  1.82192000  7.26079000  1.82095000  1
  Mo  Mo3  1  7.26552000  1.82704000  1.81063000  1
  Mo  Mo4  1  3.62436000  7.26847000  0.00788940  1
  Mo  Mo5  1  5.44074000  1.82155000  0.01886950  1
  Mo  Mo6  1  5.45727000  0.00052633  1.83915000  1
  Mo  Mo7  1  3.64156000  1.83432000  1.84848000  1
  Mo  Mo8  1  7.26633000  3.61360000  3.62371000  1
  Mo  Mo9  1  1.81973000  5.46477000  3.61874000  1
  Mo  Mo10  1  1.83467000  3.66568000  1.81632000  1
  Mo  Mo11  1  0.01642200  5.46552000  1.79166000  1
  Mo  Mo12  1  3.66626000  3.62155000  3.63091000  1
  Mo  Mo13  1  5.45030000  5.46612000  3.62648000  1
  Mo  Mo14  1  5.47406000  3.63524000  1.82257000  1
  Mo  Mo15  1  3.63100000  5.44850000  1.82431000  1
