# generated using pymatgen
data_Mo
_symmetry_space_group_name_H-M   'P 1'
_cell_length_a   7.28339199
_cell_length_b   7.28339199
_cell_length_c   3.64169598
_cell_angle_alpha   90.00000000
_cell_angle_beta   90.00000000
_cell_angle_gamma   90.00000000
_symmetry_Int_Tables_number   1
_chemical_formula_structural   Mo
_chemical_formula_sum   Mo16
_cell_volume   193.18395599
_cell_formula_units_Z   16
loop_
 _symmetry_equiv_pos_site_id
 _symmetry_equiv_pos_as_xyz
  1  'x, y, z'
loop_
 _atom_site_type_symbol
 _atom_site_label
 _atom_site_symmetry_multiplicity
 _atom_site_fract_x
 _atom_site_fract_y
 _atom_site_fract_z
 _atom_site_occupancy
  Mo  Mo0  1  -0.06378620  0.07206790  3.67141000  1
  Mo  Mo1  1  1.83856000  1.82534000  0.04851700  1
  Mo  Mo2  1  1.87186000  7.29661000  1.79419000  1
  Mo  Mo3  1  0.00147900  1.77227000  1.73486000  1
  Mo  Mo4  1  3.60089000  7.23860000  3.66199000  1
  Mo  Mo5  1  5.50202000  1.72989000  0.03412070  1
  Mo  Mo6  1  5.55255000  -0.07259930  1.74785000  1
  Mo  Mo7  1  3.69729000  1.76626000  1.86925000  1
  Mo  Mo8  1  7.32767000  3.57949000  -0.10702700  1
  Mo  Mo9  1  1.74609000  5.49409000  3.65851000  1
  Mo  Mo10  1  1.74257000  3.71270000  1.87502000  1
  Mo  Mo11  1  7.34615000  5.56320000  1.80085000  1
  Mo  Mo12  1  3.64337000  3.67548000  0.02070540  1
  Mo  Mo13  1  5.39926000  5.45073000  -0.04052890  1
  Mo  Mo14  1  5.45039000  3.65157000  1.81283000  1
  Mo  Mo15  1  3.56764000  5.46830000  1.88775000  1
