# generated using pymatgen
data_Mo
_symmetry_space_group_name_H-M   'P 1'
_cell_length_a   7.28339199
_cell_length_b   7.28339199
_cell_length_c   3.64169598
_cell_angle_alpha   90.00000000
_cell_angle_beta   90.00000000
_cell_angle_gamma   90.00000000
_symmetry_Int_Tables_number   1
_chemical_formula_structural   Mo
_chemical_formula_sum   Mo16
_cell_volume   193.18395599
_cell_formula_units_Z   16
loop_
 _symmetry_equiv_pos_site_id
 _symmetry_equiv_pos_as_xyz
  1  'x, y, z'
loop_
 _atom_site_type_symbol
 _atom_site_label
 _atom_site_symmetry_multiplicity
 _atom_site_fract_x
 _atom_site_fract_y
 _atom_site_fract_z
 _atom_site_occupancy
  Mo  Mo0  1  -0.05889650  0.07446690  3.64455000  1
  Mo  Mo1  1  1.86676000  1.75091000  -0.02332840  1
  Mo  Mo2  1  1.84267000  7.19218000  1.83769000  1
  Mo  Mo3  1  0.01991780  1.80956000  1.79293000  1
  Mo  Mo4  1  3.65722000  7.34628000  3.63582000  1
  Mo  Mo5  1  5.46438000  1.91951000  0.05165160  1
  Mo  Mo6  1  5.47749000  -0.06365510  1.77775000  1
  Mo  Mo7  1  3.57759000  1.84643000  1.75246000  1
  Mo  Mo8  1  7.35893000  3.49216000  -0.07370470  1
  Mo  Mo9  1  1.80007000  5.51341000  3.63140000  1
  Mo  Mo10  1  1.73629000  3.66523000  1.83423000  1
  Mo  Mo11  1  7.23464000  5.50007000  1.84879000  1
  Mo  Mo12  1  3.69318000  3.64971000  0.02001100  1
  Mo  Mo13  1  5.44297000  5.38403000  0.05033790  1
  Mo  Mo14  1  5.51874000  3.65566000  1.89126000  1
  Mo  Mo15  1  3.59204000  5.48804000  1.79846000  1
