# generated using pymatgen
data_Mo
_symmetry_space_group_name_H-M   'P 1'
_cell_length_a   7.28339199
_cell_length_b   7.28339199
_cell_length_c   3.64169598
_cell_angle_alpha   90.00000000
_cell_angle_beta   90.00000000
_cell_angle_gamma   90.00000000
_symmetry_Int_Tables_number   1
_chemical_formula_structural   Mo
_chemical_formula_sum   Mo16
_cell_volume   193.18395599
_cell_formula_units_Z   16
loop_
 _symmetry_equiv_pos_site_id
 _symmetry_equiv_pos_as_xyz
  1  'x, y, z'
loop_
 _atom_site_type_symbol
 _atom_site_label
 _atom_site_symmetry_multiplicity
 _atom_site_fract_x
 _atom_site_fract_y
 _atom_site_fract_z
 _atom_site_occupancy
  Mo  Mo0  1  -0.05303350  0.02360730  3.70087000  1
  Mo  Mo1  1  1.78647000  1.86092000  0.02296870  1
  Mo  Mo2  1  1.90445000  7.24341000  1.74474000  1
  Mo  Mo3  1  -0.01372400  1.86200000  1.84684000  1
  Mo  Mo4  1  3.57061000  7.25222000  3.54263000  1
  Mo  Mo5  1  5.38912000  1.81286000  0.08904180  1
  Mo  Mo6  1  5.48608000  0.02544750  1.79256000  1
  Mo  Mo7  1  3.58388000  1.90714000  1.80856000  1
  Mo  Mo8  1  7.25101000  3.58683000  0.00103286  1
  Mo  Mo9  1  1.83462000  5.32939000  3.58673000  1
  Mo  Mo10  1  1.78521000  3.61115000  1.86150000  1
  Mo  Mo11  1  7.35338000  5.39410000  1.87644000  1
  Mo  Mo12  1  3.78898000  3.72887000  -0.04790140  1
  Mo  Mo13  1  5.42499000  5.56922000  -0.04805290  1
  Mo  Mo14  1  5.46292000  3.58731000  1.90646000  1
  Mo  Mo15  1  3.66904000  5.42954000  1.78588000  1
