# generated using pymatgen
data_Mo
_symmetry_space_group_name_H-M   'P 1'
_cell_length_a   7.28339199
_cell_length_b   7.28339199
_cell_length_c   3.64169598
_cell_angle_alpha   90.00000000
_cell_angle_beta   90.00000000
_cell_angle_gamma   90.00000000
_symmetry_Int_Tables_number   1
_chemical_formula_structural   Mo
_chemical_formula_sum   Mo16
_cell_volume   193.18395599
_cell_formula_units_Z   16
loop_
 _symmetry_equiv_pos_site_id
 _symmetry_equiv_pos_as_xyz
  1  'x, y, z'
loop_
 _atom_site_type_symbol
 _atom_site_label
 _atom_site_symmetry_multiplicity
 _atom_site_fract_x
 _atom_site_fract_y
 _atom_site_fract_z
 _atom_site_occupancy
  Mo  Mo0  1  -0.01996980  0.03213790  3.52099000  1
  Mo  Mo1  1  1.77072000  1.78441000  0.10807200  1
  Mo  Mo2  1  1.81010000  7.18155000  1.82427000  1
  Mo  Mo3  1  0.04052170  1.77223000  1.90127000  1
  Mo  Mo4  1  3.75525000  7.22705000  3.60724000  1
  Mo  Mo5  1  5.51692000  1.82605000  0.04165410  1
  Mo  Mo6  1  5.40509000  0.06211820  1.85101000  1
  Mo  Mo7  1  3.62234000  1.78456000  1.81535000  1
  Mo  Mo8  1  7.29503000  3.72708000  -0.00720132  1
  Mo  Mo9  1  1.78121000  5.50117000  3.58800000  1
  Mo  Mo10  1  1.83709000  3.65146000  1.80870000  1
  Mo  Mo11  1  7.28469000  5.41239000  1.86206000  1
  Mo  Mo12  1  3.60132000  3.63452000  0.02947710  1
  Mo  Mo13  1  5.49168000  5.53239000  -0.05341050  1
  Mo  Mo14  1  5.42738000  3.59750000  1.78319000  1
  Mo  Mo15  1  3.60464000  5.49738000  1.78962000  1
