# generated using pymatgen
data_Mo
_symmetry_space_group_name_H-M   'P 1'
_cell_length_a   7.28339199
_cell_length_b   7.28339199
_cell_length_c   3.64169598
_cell_angle_alpha   90.00000000
_cell_angle_beta   90.00000000
_cell_angle_gamma   90.00000000
_symmetry_Int_Tables_number   1
_chemical_formula_structural   Mo
_chemical_formula_sum   Mo16
_cell_volume   193.18395599
_cell_formula_units_Z   16
loop_
 _symmetry_equiv_pos_site_id
 _symmetry_equiv_pos_as_xyz
  1  'x, y, z'
loop_
 _atom_site_type_symbol
 _atom_site_label
 _atom_site_symmetry_multiplicity
 _atom_site_fract_x
 _atom_site_fract_y
 _atom_site_fract_z
 _atom_site_occupancy
  Mo  Mo0  1  0.01351980  -0.03652580  3.71544000  1
  Mo  Mo1  1  1.79137000  1.80145000  -0.14470800  1
  Mo  Mo2  1  1.76462000  7.29194000  1.83050000  1
  Mo  Mo3  1  -0.06842170  1.89902000  1.76389000  1
  Mo  Mo4  1  3.65358000  7.29248000  3.67978000  1
  Mo  Mo5  1  5.36165000  1.86693000  -0.08928660  1
  Mo  Mo6  1  5.54126000  0.04020900  1.81899000  1
  Mo  Mo7  1  3.69468000  1.82870000  1.83434000  1
  Mo  Mo8  1  7.35928000  3.55474000  0.03281890  1
  Mo  Mo9  1  1.87564000  5.45104000  3.68544000  1
  Mo  Mo10  1  1.80536000  3.66359000  1.85229000  1
  Mo  Mo11  1  7.31793000  5.46381000  1.76877000  1
  Mo  Mo12  1  3.54479000  3.64449000  -0.01835530  1
  Mo  Mo13  1  5.39016000  5.38587000  0.04056020  1
  Mo  Mo14  1  5.47594000  3.59422000  1.82016000  1
  Mo  Mo15  1  3.70266000  5.48202000  1.87968000  1
