# generated using pymatgen
data_Mo
_symmetry_space_group_name_H-M   'P 1'
_cell_length_a   7.28339199
_cell_length_b   7.28339199
_cell_length_c   3.64169598
_cell_angle_alpha   90.00000000
_cell_angle_beta   90.00000000
_cell_angle_gamma   90.00000000
_symmetry_Int_Tables_number   1
_chemical_formula_structural   Mo
_chemical_formula_sum   Mo16
_cell_volume   193.18395599
_cell_formula_units_Z   16
loop_
 _symmetry_equiv_pos_site_id
 _symmetry_equiv_pos_as_xyz
  1  'x, y, z'
loop_
 _atom_site_type_symbol
 _atom_site_label
 _atom_site_symmetry_multiplicity
 _atom_site_fract_x
 _atom_site_fract_y
 _atom_site_fract_z
 _atom_site_occupancy
  Mo  Mo0  1  0.05061510  0.01703460  3.57021000  1
  Mo  Mo1  1  1.73046000  1.89842000  0.00719622  1
  Mo  Mo2  1  1.80264000  7.29355000  1.84543000  1
  Mo  Mo3  1  -0.00330198  1.74284000  1.79421000  1
  Mo  Mo4  1  3.66154000  7.25803000  3.66333000  1
  Mo  Mo5  1  5.51004000  1.79598000  -0.02305620  1
  Mo  Mo6  1  5.40687000  0.06859290  1.88349000  1
  Mo  Mo7  1  3.63966000  1.85901000  1.77694000  1
  Mo  Mo8  1  7.24732000  3.67880000  -0.00862510  1
  Mo  Mo9  1  1.82152000  5.45863000  3.65940000  1
  Mo  Mo10  1  1.87934000  3.67580000  1.74529000  1
  Mo  Mo11  1  7.27639000  5.39753000  1.89319000  1
  Mo  Mo12  1  3.61848000  3.61988000  0.04162760  1
  Mo  Mo13  1  5.48151000  5.48398000  0.04119630  1
  Mo  Mo14  1  5.49313000  3.54937000  1.75564000  1
  Mo  Mo15  1  3.60777000  5.42656000  1.82484000  1
