# generated using pymatgen
data_Mo
_symmetry_space_group_name_H-M   'P 1'
_cell_length_a   7.28339199
_cell_length_b   7.28339199
_cell_length_c   3.64169598
_cell_angle_alpha   90.00000000
_cell_angle_beta   90.00000000
_cell_angle_gamma   90.00000000
_symmetry_Int_Tables_number   1
_chemical_formula_structural   Mo
_chemical_formula_sum   Mo16
_cell_volume   193.18395599
_cell_formula_units_Z   16
loop_
 _symmetry_equiv_pos_site_id
 _symmetry_equiv_pos_as_xyz
  1  'x, y, z'
loop_
 _atom_site_type_symbol
 _atom_site_label
 _atom_site_symmetry_multiplicity
 _atom_site_fract_x
 _atom_site_fract_y
 _atom_site_fract_z
 _atom_site_occupancy
  Mo  Mo0  1  -0.03579950  0.08121240  3.72449000  1
  Mo  Mo1  1  1.84935000  1.90244000  0.01331270  1
  Mo  Mo2  1  1.83247000  7.24035000  1.77834000  1
  Mo  Mo3  1  -0.03261200  1.77901000  1.86226000  1
  Mo  Mo4  1  3.61059000  7.28956000  3.58556000  1
  Mo  Mo5  1  5.45876000  1.72009000  0.06936700  1
  Mo  Mo6  1  5.53616000  -0.11318200  1.81126000  1
  Mo  Mo7  1  3.62470000  1.85385000  1.77369000  1
  Mo  Mo8  1  7.31115000  3.53524000  -0.03580490  1
  Mo  Mo9  1  1.78656000  5.47798000  3.63525000  1
  Mo  Mo10  1  1.75215000  3.70815000  1.80287000  1
  Mo  Mo11  1  7.37498000  5.49606000  1.90798000  1
  Mo  Mo12  1  3.70161000  3.65103000  -0.09537350  1
  Mo  Mo13  1  5.45054000  5.50843000  -0.01017660  1
  Mo  Mo14  1  5.46561000  3.65112000  1.86583000  1
  Mo  Mo15  1  3.53779000  5.44265000  1.78147000  1
