# generated using pymatgen
data_Mo
_symmetry_space_group_name_H-M   'P 1'
_cell_length_a   7.28339199
_cell_length_b   7.28339199
_cell_length_c   3.64169598
_cell_angle_alpha   90.00000000
_cell_angle_beta   90.00000000
_cell_angle_gamma   90.00000000
_symmetry_Int_Tables_number   1
_chemical_formula_structural   Mo
_chemical_formula_sum   Mo16
_cell_volume   193.18395599
_cell_formula_units_Z   16
loop_
 _symmetry_equiv_pos_site_id
 _symmetry_equiv_pos_as_xyz
  1  'x, y, z'
loop_
 _atom_site_type_symbol
 _atom_site_label
 _atom_site_symmetry_multiplicity
 _atom_site_fract_x
 _atom_site_fract_y
 _atom_site_fract_z
 _atom_site_occupancy
  Mo  Mo0  1  0.02285900  -0.05864070  3.66394000  1
  Mo  Mo1  1  1.79831000  1.78505000  -0.06868330  1
  Mo  Mo2  1  1.80250000  7.24116000  1.79044000  1
  Mo  Mo3  1  -0.00961705  1.82783000  1.71516000  1
  Mo  Mo4  1  3.56329000  7.37179000  3.70811000  1
  Mo  Mo5  1  5.45674000  1.82540000  -0.08110900  1
  Mo  Mo6  1  5.57498000  0.02421570  1.79595000  1
  Mo  Mo7  1  3.57508000  1.86801000  1.82035000  1
  Mo  Mo8  1  7.28782000  3.55076000  -0.01958480  1
  Mo  Mo9  1  1.87024000  5.43683000  3.68946000  1
  Mo  Mo10  1  1.73556000  3.65233000  1.89754000  1
  Mo  Mo11  1  7.31028000  5.51113000  1.79040000  1
  Mo  Mo12  1  3.65056000  3.64980000  -0.04892360  1
  Mo  Mo13  1  5.44545000  5.44976000  0.04613480  1
  Mo  Mo14  1  5.44584000  3.61775000  1.83654000  1
  Mo  Mo15  1  3.69410000  5.47081000  1.93458000  1
