# generated using pymatgen
data_Mo
_symmetry_space_group_name_H-M   'P 1'
_cell_length_a   7.28339199
_cell_length_b   7.28339199
_cell_length_c   3.64169598
_cell_angle_alpha   90.00000000
_cell_angle_beta   90.00000000
_cell_angle_gamma   90.00000000
_symmetry_Int_Tables_number   1
_chemical_formula_structural   Mo
_chemical_formula_sum   Mo16
_cell_volume   193.18395599
_cell_formula_units_Z   16
loop_
 _symmetry_equiv_pos_site_id
 _symmetry_equiv_pos_as_xyz
  1  'x, y, z'
loop_
 _atom_site_type_symbol
 _atom_site_label
 _atom_site_symmetry_multiplicity
 _atom_site_fract_x
 _atom_site_fract_y
 _atom_site_fract_z
 _atom_site_occupancy
  Mo  Mo0  1  0.04004280  0.03396210  3.55699000  1
  Mo  Mo1  1  1.82039000  1.81803000  0.00142904  1
  Mo  Mo2  1  1.92028000  7.18458000  1.84233000  1
  Mo  Mo3  1  0.04294390  1.82604000  1.83754000  1
  Mo  Mo4  1  3.56600000  7.34625000  3.71376000  1
  Mo  Mo5  1  5.48140000  1.78468000  0.01093480  1
  Mo  Mo6  1  5.33726000  0.05491170  1.80574000  1
  Mo  Mo7  1  3.59314000  1.82381000  1.92942000  1
  Mo  Mo8  1  7.29254000  3.47210000  0.00297013  1
  Mo  Mo9  1  1.83241000  5.45796000  3.54664000  1
  Mo  Mo10  1  1.83342000  3.64957000  1.75734000  1
  Mo  Mo11  1  7.25974000  5.47385000  1.79543000  1
  Mo  Mo12  1  3.56967000  3.71801000  0.04841240  1
  Mo  Mo13  1  5.54003000  5.49193000  0.00215375  1
  Mo  Mo14  1  5.46605000  3.67508000  1.77297000  1
  Mo  Mo15  1  3.62869000  5.41321000  1.84626000  1
