# generated using pymatgen
data_Mo
_symmetry_space_group_name_H-M   'P 1'
_cell_length_a   7.27806742
_cell_length_b   7.27806742
_cell_length_c   3.63903379
_cell_angle_alpha   90.00000000
_cell_angle_beta   90.00000000
_cell_angle_gamma   90.00000000
_symmetry_Int_Tables_number   1
_chemical_formula_structural   Mo
_chemical_formula_sum   Mo16
_cell_volume   192.76058556
_cell_formula_units_Z   16
loop_
 _symmetry_equiv_pos_site_id
 _symmetry_equiv_pos_as_xyz
  1  'x, y, z'
loop_
 _atom_site_type_symbol
 _atom_site_label
 _atom_site_symmetry_multiplicity
 _atom_site_fract_x
 _atom_site_fract_y
 _atom_site_fract_z
 _atom_site_occupancy
  Mo  Mo0  1  -0.00208798  7.28251000  3.62020000  1
  Mo  Mo1  1  1.84745000  1.82615000  0.02909060  1
  Mo  Mo2  1  1.80830000  7.27493000  1.83661000  1
  Mo  Mo3  1  7.29608000  1.81981000  1.83330000  1
  Mo  Mo4  1  3.65911000  7.30065000  -0.01136960  1
  Mo  Mo5  1  5.47107000  1.81326000  -0.02206650  1
  Mo  Mo6  1  5.46787000  -0.01841360  1.80812000  1
  Mo  Mo7  1  3.61965000  1.81959000  1.80294000  1
  Mo  Mo8  1  7.27399000  3.63312000  3.62704000  1
  Mo  Mo9  1  1.81268000  5.46453000  3.64683000  1
  Mo  Mo10  1  1.79094000  3.62785000  1.80223000  1
  Mo  Mo11  1  -0.00671191  5.45103000  1.83369000  1
  Mo  Mo12  1  3.62229000  3.63025000  3.65053000  1
  Mo  Mo13  1  5.46197000  5.46371000  3.64777000  1
  Mo  Mo14  1  5.45490000  3.64532000  1.82996000  1
  Mo  Mo15  1  3.64649000  5.46777000  1.81617000  1
