# generated using pymatgen
data_Mo
_symmetry_space_group_name_H-M   'P 1'
_cell_length_a   7.28339199
_cell_length_b   7.28339199
_cell_length_c   3.64169598
_cell_angle_alpha   90.00000000
_cell_angle_beta   90.00000000
_cell_angle_gamma   90.00000000
_symmetry_Int_Tables_number   1
_chemical_formula_structural   Mo
_chemical_formula_sum   Mo16
_cell_volume   193.18395599
_cell_formula_units_Z   16
loop_
 _symmetry_equiv_pos_site_id
 _symmetry_equiv_pos_as_xyz
  1  'x, y, z'
loop_
 _atom_site_type_symbol
 _atom_site_label
 _atom_site_symmetry_multiplicity
 _atom_site_fract_x
 _atom_site_fract_y
 _atom_site_fract_z
 _atom_site_occupancy
  Mo  Mo0  1  -0.03932320  0.01963410  3.58009000  1
  Mo  Mo1  1  1.89305000  1.80607000  -0.01617630  1
  Mo  Mo2  1  1.73343000  7.34835000  1.84823000  1
  Mo  Mo3  1  0.01178180  1.83738000  1.76479000  1
  Mo  Mo4  1  3.75878000  7.17672000  3.64397000  1
  Mo  Mo5  1  5.38497000  1.83660000  -0.14738500  1
  Mo  Mo6  1  5.49476000  0.01211580  1.84262000  1
  Mo  Mo7  1  3.64242000  1.80080000  1.78247000  1
  Mo  Mo8  1  7.28808000  3.64375000  0.03372400  1
  Mo  Mo9  1  1.78220000  5.49951000  3.72298000  1
  Mo  Mo10  1  1.79860000  3.59523000  1.82233000  1
  Mo  Mo11  1  7.24162000  5.41106000  1.81457000  1
  Mo  Mo12  1  3.64512000  3.63619000  0.02760710  1
  Mo  Mo13  1  5.44334000  5.46455000  0.07450190  1
  Mo  Mo14  1  5.49903000  3.60384000  1.83571000  1
  Mo  Mo15  1  3.64614000  5.53221000  1.84028000  1
