# generated using pymatgen
data_Mo
_symmetry_space_group_name_H-M   'P 1'
_cell_length_a   7.28339199
_cell_length_b   7.28339199
_cell_length_c   3.64169598
_cell_angle_alpha   90.00000000
_cell_angle_beta   90.00000000
_cell_angle_gamma   90.00000000
_symmetry_Int_Tables_number   1
_chemical_formula_structural   Mo
_chemical_formula_sum   Mo16
_cell_volume   193.18395599
_cell_formula_units_Z   16
loop_
 _symmetry_equiv_pos_site_id
 _symmetry_equiv_pos_as_xyz
  1  'x, y, z'
loop_
 _atom_site_type_symbol
 _atom_site_label
 _atom_site_symmetry_multiplicity
 _atom_site_fract_x
 _atom_site_fract_y
 _atom_site_fract_z
 _atom_site_occupancy
  Mo  Mo0  1  -0.01674340  -0.02045200  3.71412000  1
  Mo  Mo1  1  1.79890000  1.76731000  0.01213330  1
  Mo  Mo2  1  1.87494000  7.19355000  1.74322000  1
  Mo  Mo3  1  0.01968820  1.88491000  1.76512000  1
  Mo  Mo4  1  3.52859000  7.38327000  3.66549000  1
  Mo  Mo5  1  5.54460000  1.77272000  -0.03308570  1
  Mo  Mo6  1  5.45293000  -0.04294300  1.86610000  1
  Mo  Mo7  1  3.66714000  1.82487000  1.84523000  1
  Mo  Mo8  1  7.31122000  3.57608000  0.00726797  1
  Mo  Mo9  1  1.74059000  5.39640000  3.58211000  1
  Mo  Mo10  1  1.78985000  3.70507000  1.87348000  1
  Mo  Mo11  1  7.24422000  5.46901000  1.79926000  1
  Mo  Mo12  1  3.71387000  3.65710000  -0.02305920  1
  Mo  Mo13  1  5.45850000  5.50275000  -0.01790170  1
  Mo  Mo14  1  5.45618000  3.67606000  1.87665000  1
  Mo  Mo15  1  3.63952000  5.47830000  1.79418000  1
