# generated using pymatgen
data_Mo
_symmetry_space_group_name_H-M   'P 1'
_cell_length_a   7.28339199
_cell_length_b   7.28339199
_cell_length_c   3.64169598
_cell_angle_alpha   90.00000000
_cell_angle_beta   90.00000000
_cell_angle_gamma   90.00000000
_symmetry_Int_Tables_number   1
_chemical_formula_structural   Mo
_chemical_formula_sum   Mo16
_cell_volume   193.18395599
_cell_formula_units_Z   16
loop_
 _symmetry_equiv_pos_site_id
 _symmetry_equiv_pos_as_xyz
  1  'x, y, z'
loop_
 _atom_site_type_symbol
 _atom_site_label
 _atom_site_symmetry_multiplicity
 _atom_site_fract_x
 _atom_site_fract_y
 _atom_site_fract_z
 _atom_site_occupancy
  Mo  Mo0  1  -0.05961780  0.01860220  3.67527000  1
  Mo  Mo1  1  1.82435000  1.87592000  -0.02264100  1
  Mo  Mo2  1  1.89311000  7.32279000  1.83213000  1
  Mo  Mo3  1  -0.04550450  1.91743000  1.77431000  1
  Mo  Mo4  1  3.59767000  7.31984000  3.70960000  1
  Mo  Mo5  1  5.45752000  1.72521000  -0.02372960  1
  Mo  Mo6  1  5.45171000  -0.17297900  1.87340000  1
  Mo  Mo7  1  3.64908000  1.76998000  1.71045000  1
  Mo  Mo8  1  7.27529000  3.61040000  -0.04472820  1
  Mo  Mo9  1  1.78243000  5.44450000  3.66761000  1
  Mo  Mo10  1  1.83062000  3.67470000  1.81816000  1
  Mo  Mo11  1  7.32296000  5.49471000  1.86903000  1
  Mo  Mo12  1  3.73558000  3.60711000  -0.07087260  1
  Mo  Mo13  1  5.52705000  5.47796000  0.00603730  1
  Mo  Mo14  1  5.35669000  3.65870000  1.81928000  1
  Mo  Mo15  1  3.62506000  5.47913000  1.87699000  1
