# generated using pymatgen
data_Mo
_symmetry_space_group_name_H-M   'P 1'
_cell_length_a   7.28339199
_cell_length_b   7.28339199
_cell_length_c   3.64169598
_cell_angle_alpha   90.00000000
_cell_angle_beta   90.00000000
_cell_angle_gamma   90.00000000
_symmetry_Int_Tables_number   1
_chemical_formula_structural   Mo
_chemical_formula_sum   Mo16
_cell_volume   193.18395599
_cell_formula_units_Z   16
loop_
 _symmetry_equiv_pos_site_id
 _symmetry_equiv_pos_as_xyz
  1  'x, y, z'
loop_
 _atom_site_type_symbol
 _atom_site_label
 _atom_site_symmetry_multiplicity
 _atom_site_fract_x
 _atom_site_fract_y
 _atom_site_fract_z
 _atom_site_occupancy
  Mo  Mo0  1  -0.03435650  -0.01842410  3.75733000  1
  Mo  Mo1  1  1.74036000  1.80194000  -0.04776050  1
  Mo  Mo2  1  1.82369000  7.27905000  1.87586000  1
  Mo  Mo3  1  -0.01234580  1.83745000  1.77391000  1
  Mo  Mo4  1  3.58984000  7.35183000  3.69741000  1
  Mo  Mo5  1  5.50387000  1.73778000  -0.07121730  1
  Mo  Mo6  1  5.48665000  -0.05137300  1.83861000  1
  Mo  Mo7  1  3.63222000  1.85834000  1.77210000  1
  Mo  Mo8  1  7.31547000  3.58587000  -0.04440960  1
  Mo  Mo9  1  1.80394000  5.49062000  3.69084000  1
  Mo  Mo10  1  1.83439000  3.70049000  1.79309000  1
  Mo  Mo11  1  7.28007000  5.52746000  1.80054000  1
  Mo  Mo12  1  3.69259000  3.63019000  -0.03988560  1
  Mo  Mo13  1  5.45556000  5.47220000  -0.06493960  1
  Mo  Mo14  1  5.40248000  3.57974000  1.86330000  1
  Mo  Mo15  1  3.70957000  5.44082000  1.87553000  1
