# generated using pymatgen
data_Mo
_symmetry_space_group_name_H-M   'P 1'
_cell_length_a   7.28339199
_cell_length_b   7.28339199
_cell_length_c   3.64169598
_cell_angle_alpha   90.00000000
_cell_angle_beta   90.00000000
_cell_angle_gamma   90.00000000
_symmetry_Int_Tables_number   1
_chemical_formula_structural   Mo
_chemical_formula_sum   Mo16
_cell_volume   193.18395599
_cell_formula_units_Z   16
loop_
 _symmetry_equiv_pos_site_id
 _symmetry_equiv_pos_as_xyz
  1  'x, y, z'
loop_
 _atom_site_type_symbol
 _atom_site_label
 _atom_site_symmetry_multiplicity
 _atom_site_fract_x
 _atom_site_fract_y
 _atom_site_fract_z
 _atom_site_occupancy
  Mo  Mo0  1  -0.03066330  0.00011618  3.63592000  1
  Mo  Mo1  1  1.82553000  1.89099000  -0.01045720  1
  Mo  Mo2  1  1.79543000  7.31999000  1.88177000  1
  Mo  Mo3  1  -0.01923230  1.73735000  1.82932000  1
  Mo  Mo4  1  3.71161000  7.30839000  3.64080000  1
  Mo  Mo5  1  5.40163000  1.75708000  0.03223920  1
  Mo  Mo6  1  5.44501000  0.03451560  1.81764000  1
  Mo  Mo7  1  3.57135000  1.77601000  1.79664000  1
  Mo  Mo8  1  7.26879000  3.69907000  -0.10089000  1
  Mo  Mo9  1  1.88420000  5.48284000  3.69750000  1
  Mo  Mo10  1  1.81147000  3.68536000  1.77967000  1
  Mo  Mo11  1  7.27003000  5.45868000  1.86827000  1
  Mo  Mo12  1  3.61374000  3.57682000  0.00566951  1
  Mo  Mo13  1  5.49665000  5.44401000  0.04893920  1
  Mo  Mo14  1  5.52575000  3.57589000  1.71633000  1
  Mo  Mo15  1  3.65271000  5.47689000  1.83094000  1
