# generated using pymatgen
data_Mo
_symmetry_space_group_name_H-M   'P 1'
_cell_length_a   7.28339199
_cell_length_b   7.28339199
_cell_length_c   3.64169598
_cell_angle_alpha   90.00000000
_cell_angle_beta   90.00000000
_cell_angle_gamma   90.00000000
_symmetry_Int_Tables_number   1
_chemical_formula_structural   Mo
_chemical_formula_sum   Mo16
_cell_volume   193.18395599
_cell_formula_units_Z   16
loop_
 _symmetry_equiv_pos_site_id
 _symmetry_equiv_pos_as_xyz
  1  'x, y, z'
loop_
 _atom_site_type_symbol
 _atom_site_label
 _atom_site_symmetry_multiplicity
 _atom_site_fract_x
 _atom_site_fract_y
 _atom_site_fract_z
 _atom_site_occupancy
  Mo  Mo0  1  0.08004830  0.05827950  3.61365000  1
  Mo  Mo1  1  1.78899000  1.79337000  -0.00300242  1
  Mo  Mo2  1  1.87045000  7.27485000  1.78054000  1
  Mo  Mo3  1  0.00741033  1.76499000  1.85768000  1
  Mo  Mo4  1  3.62200000  7.14205000  3.59558000  1
  Mo  Mo5  1  5.50552000  1.88397000  0.05118190  1
  Mo  Mo6  1  5.37711000  0.03234180  1.79534000  1
  Mo  Mo7  1  3.69546000  1.85301000  1.90139000  1
  Mo  Mo8  1  7.22039000  3.69133000  0.03021810  1
  Mo  Mo9  1  1.82646000  5.52421000  3.66945000  1
  Mo  Mo10  1  1.85607000  3.60235000  1.78831000  1
  Mo  Mo11  1  7.20396000  5.47745000  1.77877000  1
  Mo  Mo12  1  3.54573000  3.61280000  0.01367680  1
  Mo  Mo13  1  5.44398000  5.45668000  -0.02054600  1
  Mo  Mo14  1  5.48897000  3.63794000  1.76466000  1
  Mo  Mo15  1  3.69144000  5.41838000  1.85341000  1
