# generated using pymatgen
data_Mo
_symmetry_space_group_name_H-M   'P 1'
_cell_length_a   7.28339199
_cell_length_b   7.28339199
_cell_length_c   3.64169598
_cell_angle_alpha   90.00000000
_cell_angle_beta   90.00000000
_cell_angle_gamma   90.00000000
_symmetry_Int_Tables_number   1
_chemical_formula_structural   Mo
_chemical_formula_sum   Mo16
_cell_volume   193.18395599
_cell_formula_units_Z   16
loop_
 _symmetry_equiv_pos_site_id
 _symmetry_equiv_pos_as_xyz
  1  'x, y, z'
loop_
 _atom_site_type_symbol
 _atom_site_label
 _atom_site_symmetry_multiplicity
 _atom_site_fract_x
 _atom_site_fract_y
 _atom_site_fract_z
 _atom_site_occupancy
  Mo  Mo0  1  -0.03011060  -0.09009300  3.59586000  1
  Mo  Mo1  1  1.84650000  1.79958000  0.08921120  1
  Mo  Mo2  1  1.79897000  7.37869000  1.86881000  1
  Mo  Mo3  1  0.05576360  1.76415000  1.80355000  1
  Mo  Mo4  1  3.68388000  7.26084000  3.63256000  1
  Mo  Mo5  1  5.51501000  1.83781000  0.02987240  1
  Mo  Mo6  1  5.42837000  -0.02128160  1.82180000  1
  Mo  Mo7  1  3.63132000  1.82902000  1.90461000  1
  Mo  Mo8  1  7.34815000  3.76681000  -0.08268230  1
  Mo  Mo9  1  1.79768000  5.58440000  3.64380000  1
  Mo  Mo10  1  1.83195000  3.62114000  1.82129000  1
  Mo  Mo11  1  7.17091000  5.45393000  1.77541000  1
  Mo  Mo12  1  3.61064000  3.62654000  0.10862800  1
  Mo  Mo13  1  5.42764000  5.44052000  -0.10426300  1
  Mo  Mo14  1  5.54268000  3.51971000  1.77451000  1
  Mo  Mo15  1  3.56465000  5.45225000  1.78732000  1
