# generated using pymatgen
data_Mo
_symmetry_space_group_name_H-M   'P 1'
_cell_length_a   7.28339199
_cell_length_b   7.28339199
_cell_length_c   3.64169598
_cell_angle_alpha   90.00000000
_cell_angle_beta   90.00000000
_cell_angle_gamma   90.00000000
_symmetry_Int_Tables_number   1
_chemical_formula_structural   Mo
_chemical_formula_sum   Mo16
_cell_volume   193.18395599
_cell_formula_units_Z   16
loop_
 _symmetry_equiv_pos_site_id
 _symmetry_equiv_pos_as_xyz
  1  'x, y, z'
loop_
 _atom_site_type_symbol
 _atom_site_label
 _atom_site_symmetry_multiplicity
 _atom_site_fract_x
 _atom_site_fract_y
 _atom_site_fract_z
 _atom_site_occupancy
  Mo  Mo0  1  -0.07322470  -0.04533440  3.65325000  1
  Mo  Mo1  1  1.78824000  1.74930000  0.04837340  1
  Mo  Mo2  1  1.82455000  7.32703000  1.81536000  1
  Mo  Mo3  1  0.01877410  1.85029000  1.87263000  1
  Mo  Mo4  1  3.71762000  7.23717000  3.60569000  1
  Mo  Mo5  1  5.42034000  1.91031000  0.00839436  1
  Mo  Mo6  1  5.52878000  0.03085520  1.87146000  1
  Mo  Mo7  1  3.55337000  1.81256000  1.85076000  1
  Mo  Mo8  1  7.34486000  3.75255000  0.05122420  1
  Mo  Mo9  1  1.89495000  5.42871000  3.59233000  1
  Mo  Mo10  1  1.80163000  3.61765000  1.82485000  1
  Mo  Mo11  1  7.29952000  5.35479000  1.75614000  1
  Mo  Mo12  1  3.59467000  3.65276000  -0.05514860  1
  Mo  Mo13  1  5.40314000  5.45946000  -0.01571800  1
  Mo  Mo14  1  5.50183000  3.57912000  1.87108000  1
  Mo  Mo15  1  3.60495000  5.50679000  1.71965000  1
