# generated using pymatgen
data_Mo
_symmetry_space_group_name_H-M   'P 1'
_cell_length_a   7.28339199
_cell_length_b   7.28339199
_cell_length_c   3.64169598
_cell_angle_alpha   90.00000000
_cell_angle_beta   90.00000000
_cell_angle_gamma   90.00000000
_symmetry_Int_Tables_number   1
_chemical_formula_structural   Mo
_chemical_formula_sum   Mo16
_cell_volume   193.18395599
_cell_formula_units_Z   16
loop_
 _symmetry_equiv_pos_site_id
 _symmetry_equiv_pos_as_xyz
  1  'x, y, z'
loop_
 _atom_site_type_symbol
 _atom_site_label
 _atom_site_symmetry_multiplicity
 _atom_site_fract_x
 _atom_site_fract_y
 _atom_site_fract_z
 _atom_site_occupancy
  Mo  Mo0  1  0.05552560  -0.02444450  3.59451000  1
  Mo  Mo1  1  1.78869000  1.86152000  -0.02906370  1
  Mo  Mo2  1  1.70555000  7.30095000  1.83854000  1
  Mo  Mo3  1  0.03998530  1.71885000  1.84981000  1
  Mo  Mo4  1  3.62126000  7.21604000  3.65724000  1
  Mo  Mo5  1  5.50442000  1.82965000  0.02770920  1
  Mo  Mo6  1  5.46769000  0.05887810  1.87058000  1
  Mo  Mo7  1  3.62030000  1.81456000  1.78856000  1
  Mo  Mo8  1  7.19114000  3.68288000  -0.01261320  1
  Mo  Mo9  1  1.87269000  5.49964000  3.64154000  1
  Mo  Mo10  1  1.84152000  3.64098000  1.74805000  1
  Mo  Mo11  1  7.24542000  5.42231000  1.88763000  1
  Mo  Mo12  1  3.69539000  3.65789000  -0.05309090  1
  Mo  Mo13  1  5.41149000  5.45368000  0.10522100  1
  Mo  Mo14  1  5.52751000  3.59834000  1.72620000  1
  Mo  Mo15  1  3.63542000  5.49227000  1.82949000  1
