# generated using pymatgen
data_Mo
_symmetry_space_group_name_H-M   'P 1'
_cell_length_a   7.28339199
_cell_length_b   7.28339199
_cell_length_c   3.64169598
_cell_angle_alpha   90.00000000
_cell_angle_beta   90.00000000
_cell_angle_gamma   90.00000000
_symmetry_Int_Tables_number   1
_chemical_formula_structural   Mo
_chemical_formula_sum   Mo16
_cell_volume   193.18395599
_cell_formula_units_Z   16
loop_
 _symmetry_equiv_pos_site_id
 _symmetry_equiv_pos_as_xyz
  1  'x, y, z'
loop_
 _atom_site_type_symbol
 _atom_site_label
 _atom_site_symmetry_multiplicity
 _atom_site_fract_x
 _atom_site_fract_y
 _atom_site_fract_z
 _atom_site_occupancy
  Mo  Mo0  1  -0.01730920  0.09172440  3.68122000  1
  Mo  Mo1  1  1.77507000  1.87706000  0.00512470  1
  Mo  Mo2  1  1.79981000  7.25934000  1.86023000  1
  Mo  Mo3  1  -0.00880125  1.99612000  1.83744000  1
  Mo  Mo4  1  3.68235000  7.25064000  3.63402000  1
  Mo  Mo5  1  5.46243000  1.79202000  -0.05067120  1
  Mo  Mo6  1  5.49898000  -0.06874520  1.76988000  1
  Mo  Mo7  1  3.70382000  1.68877000  1.72096000  1
  Mo  Mo8  1  7.23936000  3.58425000  0.07038090  1
  Mo  Mo9  1  1.76139000  5.44489000  3.64043000  1
  Mo  Mo10  1  1.81591000  3.65119000  1.83714000  1
  Mo  Mo11  1  7.19244000  5.47035000  1.89552000  1
  Mo  Mo12  1  3.64877000  3.68044000  -0.02366540  1
  Mo  Mo13  1  5.51616000  5.44490000  -0.01724320  1
  Mo  Mo14  1  5.43100000  3.63036000  1.77184000  1
  Mo  Mo15  1  3.72262000  5.43068000  1.83769000  1
