# generated using pymatgen
data_Mo
_symmetry_space_group_name_H-M   'P 1'
_cell_length_a   7.27806742
_cell_length_b   7.27806742
_cell_length_c   3.63903379
_cell_angle_alpha   90.00000000
_cell_angle_beta   90.00000000
_cell_angle_gamma   90.00000000
_symmetry_Int_Tables_number   1
_chemical_formula_structural   Mo
_chemical_formula_sum   Mo16
_cell_volume   192.76058556
_cell_formula_units_Z   16
loop_
 _symmetry_equiv_pos_site_id
 _symmetry_equiv_pos_as_xyz
  1  'x, y, z'
loop_
 _atom_site_type_symbol
 _atom_site_label
 _atom_site_symmetry_multiplicity
 _atom_site_fract_x
 _atom_site_fract_y
 _atom_site_fract_z
 _atom_site_occupancy
  Mo  Mo0  1  0.00495190  7.30017000  3.66784000  1
  Mo  Mo1  1  1.81745000  1.81550000  -0.01939860  1
  Mo  Mo2  1  1.82583000  7.26769000  1.83162000  1
  Mo  Mo3  1  7.25835000  1.81533000  1.82946000  1
  Mo  Mo4  1  3.62913000  7.27496000  0.01496790  1
  Mo  Mo5  1  5.44738000  1.83512000  0.02253960  1
  Mo  Mo6  1  5.44173000  -0.01244040  1.80039000  1
  Mo  Mo7  1  3.64868000  1.82627000  1.84428000  1
  Mo  Mo8  1  7.27798000  3.63145000  3.59941000  1
  Mo  Mo9  1  1.80774000  5.47068000  3.61582000  1
  Mo  Mo10  1  1.84853000  3.67008000  1.80651000  1
  Mo  Mo11  1  0.00282369  5.44222000  1.79762000  1
  Mo  Mo12  1  3.65126000  3.62508000  3.64069000  1
  Mo  Mo13  1  5.45656000  5.46410000  3.65424000  1
  Mo  Mo14  1  5.46477000  3.63074000  1.83076000  1
  Mo  Mo15  1  3.64084000  5.44514000  1.81427000  1
