# generated using pymatgen
data_Mo
_symmetry_space_group_name_H-M   'P 1'
_cell_length_a   7.28339199
_cell_length_b   7.28339199
_cell_length_c   3.64169598
_cell_angle_alpha   90.00000000
_cell_angle_beta   90.00000000
_cell_angle_gamma   90.00000000
_symmetry_Int_Tables_number   1
_chemical_formula_structural   Mo
_chemical_formula_sum   Mo16
_cell_volume   193.18395599
_cell_formula_units_Z   16
loop_
 _symmetry_equiv_pos_site_id
 _symmetry_equiv_pos_as_xyz
  1  'x, y, z'
loop_
 _atom_site_type_symbol
 _atom_site_label
 _atom_site_symmetry_multiplicity
 _atom_site_fract_x
 _atom_site_fract_y
 _atom_site_fract_z
 _atom_site_occupancy
  Mo  Mo0  1  0.00492659  -0.02569800  3.65812000  1
  Mo  Mo1  1  1.85879000  1.81130000  0.03503400  1
  Mo  Mo2  1  1.84065000  7.31610000  1.77912000  1
  Mo  Mo3  1  0.07994180  1.71428000  1.76753000  1
  Mo  Mo4  1  3.60341000  7.22686000  3.66387000  1
  Mo  Mo5  1  5.38469000  1.85003000  0.08487650  1
  Mo  Mo6  1  5.44408000  0.00110142  1.85376000  1
  Mo  Mo7  1  3.52960000  1.89198000  1.86650000  1
  Mo  Mo8  1  7.34199000  3.64986000  -0.04398720  1
  Mo  Mo9  1  1.82035000  5.40883000  3.61123000  1
  Mo  Mo10  1  1.75699000  3.60051000  1.81485000  1
  Mo  Mo11  1  7.28970000  5.45658000  1.74813000  1
  Mo  Mo12  1  3.66994000  3.67744000  -0.02251220  1
  Mo  Mo13  1  5.38864000  5.52046000  -0.01909630  1
  Mo  Mo14  1  5.55463000  3.56905000  1.92598000  1
  Mo  Mo15  1  3.65566000  5.55531000  1.74689000  1
