# generated using pymatgen
data_Mo
_symmetry_space_group_name_H-M   'P 1'
_cell_length_a   7.28339199
_cell_length_b   7.28339199
_cell_length_c   3.64169598
_cell_angle_alpha   90.00000000
_cell_angle_beta   90.00000000
_cell_angle_gamma   90.00000000
_symmetry_Int_Tables_number   1
_chemical_formula_structural   Mo
_chemical_formula_sum   Mo16
_cell_volume   193.18395599
_cell_formula_units_Z   16
loop_
 _symmetry_equiv_pos_site_id
 _symmetry_equiv_pos_as_xyz
  1  'x, y, z'
loop_
 _atom_site_type_symbol
 _atom_site_label
 _atom_site_symmetry_multiplicity
 _atom_site_fract_x
 _atom_site_fract_y
 _atom_site_fract_z
 _atom_site_occupancy
  Mo  Mo0  1  -0.03919710  -0.01267850  3.57313000  1
  Mo  Mo1  1  1.88235000  1.79175000  0.00837551  1
  Mo  Mo2  1  1.84549000  7.24369000  1.77346000  1
  Mo  Mo3  1  0.07365640  1.85551000  1.81524000  1
  Mo  Mo4  1  3.70412000  7.31190000  3.70424000  1
  Mo  Mo5  1  5.49324000  1.82322000  0.00666433  1
  Mo  Mo6  1  5.51838000  0.00465361  1.86632000  1
  Mo  Mo7  1  3.62732000  1.81920000  1.78880000  1
  Mo  Mo8  1  7.28294000  3.63903000  0.04256670  1
  Mo  Mo9  1  1.81635000  5.41286000  3.55924000  1
  Mo  Mo10  1  1.72197000  3.66008000  1.90928000  1
  Mo  Mo11  1  7.29114000  5.59219000  1.80531000  1
  Mo  Mo12  1  3.71033000  3.62135000  -0.01065970  1
  Mo  Mo13  1  5.34290000  5.45815000  -0.03451730  1
  Mo  Mo14  1  5.38227000  3.65544000  1.89763000  1
  Mo  Mo15  1  3.57076000  5.34766000  1.76523000  1
