# generated using pymatgen
data_Mo
_symmetry_space_group_name_H-M   'P 1'
_cell_length_a   7.28339199
_cell_length_b   7.28339199
_cell_length_c   3.64169598
_cell_angle_alpha   90.00000000
_cell_angle_beta   90.00000000
_cell_angle_gamma   90.00000000
_symmetry_Int_Tables_number   1
_chemical_formula_structural   Mo
_chemical_formula_sum   Mo16
_cell_volume   193.18395599
_cell_formula_units_Z   16
loop_
 _symmetry_equiv_pos_site_id
 _symmetry_equiv_pos_as_xyz
  1  'x, y, z'
loop_
 _atom_site_type_symbol
 _atom_site_label
 _atom_site_symmetry_multiplicity
 _atom_site_fract_x
 _atom_site_fract_y
 _atom_site_fract_z
 _atom_site_occupancy
  Mo  Mo0  1  -0.02413850  -0.00413069  3.69635000  1
  Mo  Mo1  1  1.87087000  1.84592000  0.05014570  1
  Mo  Mo2  1  1.85637000  7.24147000  1.75885000  1
  Mo  Mo3  1  0.02271890  1.87762000  1.87011000  1
  Mo  Mo4  1  3.55606000  7.35504000  3.65294000  1
  Mo  Mo5  1  5.45857000  1.79367000  0.03323330  1
  Mo  Mo6  1  5.42813000  -0.08317840  1.79049000  1
  Mo  Mo7  1  3.64298000  1.84299000  1.84839000  1
  Mo  Mo8  1  7.25697000  3.66461000  0.04261260  1
  Mo  Mo9  1  1.85581000  5.41280000  3.59466000  1
  Mo  Mo10  1  1.75978000  3.67426000  1.89609000  1
  Mo  Mo11  1  7.26792000  5.52926000  1.76244000  1
  Mo  Mo12  1  3.80003000  3.59211000  -0.09916410  1
  Mo  Mo13  1  5.35933000  5.41398000  -0.02758400  1
  Mo  Mo14  1  5.44530000  3.68735000  1.83503000  1
  Mo  Mo15  1  3.66730000  5.38023000  1.76572000  1
