# generated using pymatgen
data_Mo
_symmetry_space_group_name_H-M   'P 1'
_cell_length_a   7.28339199
_cell_length_b   7.28339199
_cell_length_c   3.64169598
_cell_angle_alpha   90.00000000
_cell_angle_beta   90.00000000
_cell_angle_gamma   90.00000000
_symmetry_Int_Tables_number   1
_chemical_formula_structural   Mo
_chemical_formula_sum   Mo16
_cell_volume   193.18395599
_cell_formula_units_Z   16
loop_
 _symmetry_equiv_pos_site_id
 _symmetry_equiv_pos_as_xyz
  1  'x, y, z'
loop_
 _atom_site_type_symbol
 _atom_site_label
 _atom_site_symmetry_multiplicity
 _atom_site_fract_x
 _atom_site_fract_y
 _atom_site_fract_z
 _atom_site_occupancy
  Mo  Mo0  1  0.00088161  -0.02120260  3.73525000  1
  Mo  Mo1  1  1.74132000  1.82623000  0.01047480  1
  Mo  Mo2  1  1.92892000  7.29814000  1.77197000  1
  Mo  Mo3  1  -0.02327240  1.81549000  1.79960000  1
  Mo  Mo4  1  3.57253000  7.29384000  3.66382000  1
  Mo  Mo5  1  5.43601000  1.87129000  0.12858400  1
  Mo  Mo6  1  5.45735000  -0.03262520  1.82122000  1
  Mo  Mo7  1  3.63013000  1.81907000  1.84945000  1
  Mo  Mo8  1  7.33407000  3.64869000  -0.07004330  1
  Mo  Mo9  1  1.83934000  5.35873000  3.54812000  1
  Mo  Mo10  1  1.81578000  3.56928000  1.83637000  1
  Mo  Mo11  1  7.33220000  5.44038000  1.73309000  1
  Mo  Mo12  1  3.65746000  3.69901000  0.00383938  1
  Mo  Mo13  1  5.43113000  5.52143000  -0.06486470  1
  Mo  Mo14  1  5.43706000  3.60974000  1.85854000  1
  Mo  Mo15  1  3.63310000  5.50650000  1.84490000  1
