# generated using pymatgen
data_Mo
_symmetry_space_group_name_H-M   'P 1'
_cell_length_a   7.28339199
_cell_length_b   7.28339199
_cell_length_c   3.64169598
_cell_angle_alpha   90.00000000
_cell_angle_beta   90.00000000
_cell_angle_gamma   90.00000000
_symmetry_Int_Tables_number   1
_chemical_formula_structural   Mo
_chemical_formula_sum   Mo16
_cell_volume   193.18395599
_cell_formula_units_Z   16
loop_
 _symmetry_equiv_pos_site_id
 _symmetry_equiv_pos_as_xyz
  1  'x, y, z'
loop_
 _atom_site_type_symbol
 _atom_site_label
 _atom_site_symmetry_multiplicity
 _atom_site_fract_x
 _atom_site_fract_y
 _atom_site_fract_z
 _atom_site_occupancy
  Mo  Mo0  1  0.01324860  -0.04266440  3.68940000  1
  Mo  Mo1  1  1.87199000  1.79655000  -0.05507380  1
  Mo  Mo2  1  1.72518000  7.28457000  1.82890000  1
  Mo  Mo3  1  -0.04893550  1.83515000  1.87713000  1
  Mo  Mo4  1  3.62244000  7.24695000  3.63746000  1
  Mo  Mo5  1  5.43915000  1.80072000  0.01790990  1
  Mo  Mo6  1  5.51663000  0.03393600  1.81210000  1
  Mo  Mo7  1  3.72866000  1.76848000  1.88495000  1
  Mo  Mo8  1  7.30296000  3.64025000  0.06659120  1
  Mo  Mo9  1  1.80322000  5.44829000  3.60909000  1
  Mo  Mo10  1  1.83247000  3.61640000  1.78547000  1
  Mo  Mo11  1  7.26603000  5.42590000  1.73401000  1
  Mo  Mo12  1  3.57119000  3.66491000  -0.02497300  1
  Mo  Mo13  1  5.41662000  5.49229000  -0.01848770  1
  Mo  Mo14  1  5.55403000  3.68666000  1.84353000  1
  Mo  Mo15  1  3.60912000  5.52563000  1.78231000  1
