# generated using pymatgen
data_Mo
_symmetry_space_group_name_H-M   'P 1'
_cell_length_a   7.28339199
_cell_length_b   7.28339199
_cell_length_c   3.64169598
_cell_angle_alpha   90.00000000
_cell_angle_beta   90.00000000
_cell_angle_gamma   90.00000000
_symmetry_Int_Tables_number   1
_chemical_formula_structural   Mo
_chemical_formula_sum   Mo16
_cell_volume   193.18395599
_cell_formula_units_Z   16
loop_
 _symmetry_equiv_pos_site_id
 _symmetry_equiv_pos_as_xyz
  1  'x, y, z'
loop_
 _atom_site_type_symbol
 _atom_site_label
 _atom_site_symmetry_multiplicity
 _atom_site_fract_x
 _atom_site_fract_y
 _atom_site_fract_z
 _atom_site_occupancy
  Mo  Mo0  1  0.15664100  -0.03576600  3.67014000  1
  Mo  Mo1  1  1.74769000  1.83146000  -0.09758520  1
  Mo  Mo2  1  1.75180000  7.39239000  1.85516000  1
  Mo  Mo3  1  -0.03490610  1.74034000  1.83984000  1
  Mo  Mo4  1  3.60068000  7.21704000  3.56987000  1
  Mo  Mo5  1  5.44978000  1.74718000  -0.01487680  1
  Mo  Mo6  1  5.42357000  0.03639720  1.86162000  1
  Mo  Mo7  1  3.71172000  1.80997000  1.76564000  1
  Mo  Mo8  1  7.23170000  3.64909000  0.07158840  1
  Mo  Mo9  1  1.78896000  5.45026000  3.63484000  1
  Mo  Mo10  1  1.84923000  3.59361000  1.77585000  1
  Mo  Mo11  1  7.33354000  5.48706000  1.86903000  1
  Mo  Mo12  1  3.60236000  3.69543000  0.04239600  1
  Mo  Mo13  1  5.52014000  5.51640000  0.03546330  1
  Mo  Mo14  1  5.47357000  3.60427000  1.81929000  1
  Mo  Mo15  1  3.61753000  5.48887000  1.77204000  1
