# generated using pymatgen
data_Mo
_symmetry_space_group_name_H-M   'P 1'
_cell_length_a   7.28339199
_cell_length_b   7.28339199
_cell_length_c   3.64169598
_cell_angle_alpha   90.00000000
_cell_angle_beta   90.00000000
_cell_angle_gamma   90.00000000
_symmetry_Int_Tables_number   1
_chemical_formula_structural   Mo
_chemical_formula_sum   Mo16
_cell_volume   193.18395599
_cell_formula_units_Z   16
loop_
 _symmetry_equiv_pos_site_id
 _symmetry_equiv_pos_as_xyz
  1  'x, y, z'
loop_
 _atom_site_type_symbol
 _atom_site_label
 _atom_site_symmetry_multiplicity
 _atom_site_fract_x
 _atom_site_fract_y
 _atom_site_fract_z
 _atom_site_occupancy
  Mo  Mo0  1  -0.02606810  -0.08247150  3.69192000  1
  Mo  Mo1  1  1.83942000  1.73424000  -0.02098070  1
  Mo  Mo2  1  1.86289000  7.22205000  1.79186000  1
  Mo  Mo3  1  0.02461150  1.84463000  1.75164000  1
  Mo  Mo4  1  3.61267000  7.33576000  3.64188000  1
  Mo  Mo5  1  5.44889000  1.82399000  -0.03589280  1
  Mo  Mo6  1  5.53914000  0.04802210  1.71400000  1
  Mo  Mo7  1  3.56920000  1.77955000  1.87571000  1
  Mo  Mo8  1  7.32811000  3.60154000  0.01599830  1
  Mo  Mo9  1  1.82600000  5.43448000  3.64699000  1
  Mo  Mo10  1  1.70443000  3.65726000  1.91592000  1
  Mo  Mo11  1  7.24851000  5.52238000  1.75426000  1
  Mo  Mo12  1  3.58667000  3.62012000  0.01401140  1
  Mo  Mo13  1  5.45243000  5.50090000  0.00689544  1
  Mo  Mo14  1  5.50700000  3.66994000  1.88763000  1
  Mo  Mo15  1  3.70007000  5.51161000  1.81847000  1
