# generated using pymatgen
data_Mo
_symmetry_space_group_name_H-M   'P 1'
_cell_length_a   7.28339199
_cell_length_b   7.28339199
_cell_length_c   3.64169598
_cell_angle_alpha   90.00000000
_cell_angle_beta   90.00000000
_cell_angle_gamma   90.00000000
_symmetry_Int_Tables_number   1
_chemical_formula_structural   Mo
_chemical_formula_sum   Mo16
_cell_volume   193.18395599
_cell_formula_units_Z   16
loop_
 _symmetry_equiv_pos_site_id
 _symmetry_equiv_pos_as_xyz
  1  'x, y, z'
loop_
 _atom_site_type_symbol
 _atom_site_label
 _atom_site_symmetry_multiplicity
 _atom_site_fract_x
 _atom_site_fract_y
 _atom_site_fract_z
 _atom_site_occupancy
  Mo  Mo0  1  0.04436350  -0.05839610  3.67281000  1
  Mo  Mo1  1  1.84208000  1.73562000  -0.02248870  1
  Mo  Mo2  1  1.75594000  7.29257000  1.78789000  1
  Mo  Mo3  1  -0.01737140  1.85239000  1.81589000  1
  Mo  Mo4  1  3.61586000  7.30789000  3.61122000  1
  Mo  Mo5  1  5.38686000  1.90373000  -0.06572320  1
  Mo  Mo6  1  5.54901000  0.04050860  1.77075000  1
  Mo  Mo7  1  3.66186000  1.84405000  1.91794000  1
  Mo  Mo8  1  7.33379000  3.55017000  0.08053730  1
  Mo  Mo9  1  1.82213000  5.45000000  3.60884000  1
  Mo  Mo10  1  1.79993000  3.54684000  1.89733000  1
  Mo  Mo11  1  7.27616000  5.44721000  1.73949000  1
  Mo  Mo12  1  3.53369000  3.64598000  0.03751340  1
  Mo  Mo13  1  5.42762000  5.45391000  -0.01123060  1
  Mo  Mo14  1  5.50649000  3.69441000  1.85276000  1
  Mo  Mo15  1  3.68558000  5.51711000  1.77678000  1
