# generated using pymatgen
data_Mo
_symmetry_space_group_name_H-M   'P 1'
_cell_length_a   7.28339199
_cell_length_b   7.28339199
_cell_length_c   3.64169598
_cell_angle_alpha   90.00000000
_cell_angle_beta   90.00000000
_cell_angle_gamma   90.00000000
_symmetry_Int_Tables_number   1
_chemical_formula_structural   Mo
_chemical_formula_sum   Mo16
_cell_volume   193.18395599
_cell_formula_units_Z   16
loop_
 _symmetry_equiv_pos_site_id
 _symmetry_equiv_pos_as_xyz
  1  'x, y, z'
loop_
 _atom_site_type_symbol
 _atom_site_label
 _atom_site_symmetry_multiplicity
 _atom_site_fract_x
 _atom_site_fract_y
 _atom_site_fract_z
 _atom_site_occupancy
  Mo  Mo0  1  0.06771290  0.00350692  3.68642000  1
  Mo  Mo1  1  1.86259000  1.85593000  -0.07555820  1
  Mo  Mo2  1  1.70520000  7.36219000  1.82003000  1
  Mo  Mo3  1  -0.06509390  1.78268000  1.83453000  1
  Mo  Mo4  1  3.61013000  7.18690000  3.64805000  1
  Mo  Mo5  1  5.42225000  1.74166000  -0.02936510  1
  Mo  Mo6  1  5.49674000  -0.02501790  1.90661000  1
  Mo  Mo7  1  3.70019000  1.78106000  1.83909000  1
  Mo  Mo8  1  7.20441000  3.71077000  -0.00239520  1
  Mo  Mo9  1  1.86181000  5.50656000  3.62908000  1
  Mo  Mo10  1  1.89254000  3.63538000  1.76622000  1
  Mo  Mo11  1  7.24811000  5.43165000  1.83588000  1
  Mo  Mo12  1  3.64890000  3.68049000  -0.03956090  1
  Mo  Mo13  1  5.41346000  5.43391000  0.08459530  1
  Mo  Mo14  1  5.51047000  3.67552000  1.75668000  1
  Mo  Mo15  1  3.64456000  5.46081000  1.81000000  1
