# generated using pymatgen
data_Mo
_symmetry_space_group_name_H-M   'P 1'
_cell_length_a   7.27806742
_cell_length_b   7.27806742
_cell_length_c   3.63903379
_cell_angle_alpha   90.00000000
_cell_angle_beta   90.00000000
_cell_angle_gamma   90.00000000
_symmetry_Int_Tables_number   1
_chemical_formula_structural   Mo
_chemical_formula_sum   Mo16
_cell_volume   192.76058556
_cell_formula_units_Z   16
loop_
 _symmetry_equiv_pos_site_id
 _symmetry_equiv_pos_as_xyz
  1  'x, y, z'
loop_
 _atom_site_type_symbol
 _atom_site_label
 _atom_site_symmetry_multiplicity
 _atom_site_fract_x
 _atom_site_fract_y
 _atom_site_fract_z
 _atom_site_occupancy
  Mo  Mo0  1  -0.00756615  7.27245000  3.61447000  1
  Mo  Mo1  1  1.82262000  1.82387000  0.00819382  1
  Mo  Mo2  1  1.79318000  7.26372000  1.81132000  1
  Mo  Mo3  1  7.27072000  1.81336000  1.82544000  1
  Mo  Mo4  1  3.64884000  7.28216000  0.01746650  1
  Mo  Mo5  1  5.44821000  1.83715000  0.00885249  1
  Mo  Mo6  1  5.48501000  0.01004050  1.85537000  1
  Mo  Mo7  1  3.62155000  1.82059000  1.84528000  1
  Mo  Mo8  1  7.27641000  3.62987000  3.61897000  1
  Mo  Mo9  1  1.81544000  5.46724000  3.64259000  1
  Mo  Mo10  1  1.82691000  3.62731000  1.78519000  1
  Mo  Mo11  1  0.02274660  5.46895000  1.83889000  1
  Mo  Mo12  1  3.65243000  3.63386000  3.65330000  1
  Mo  Mo13  1  5.42775000  5.45151000  3.59962000  1
  Mo  Mo14  1  5.48934000  3.63758000  1.81628000  1
  Mo  Mo15  1  3.63042000  5.46242000  1.80982000  1
