# generated using pymatgen
data_Mo
_symmetry_space_group_name_H-M   'P 1'
_cell_length_a   7.28339199
_cell_length_b   7.28339199
_cell_length_c   3.64169598
_cell_angle_alpha   90.00000000
_cell_angle_beta   90.00000000
_cell_angle_gamma   90.00000000
_symmetry_Int_Tables_number   1
_chemical_formula_structural   Mo
_chemical_formula_sum   Mo16
_cell_volume   193.18395599
_cell_formula_units_Z   16
loop_
 _symmetry_equiv_pos_site_id
 _symmetry_equiv_pos_as_xyz
  1  'x, y, z'
loop_
 _atom_site_type_symbol
 _atom_site_label
 _atom_site_symmetry_multiplicity
 _atom_site_fract_x
 _atom_site_fract_y
 _atom_site_fract_z
 _atom_site_occupancy
  Mo  Mo0  1  -0.05290200  0.03978680  3.56017000  1
  Mo  Mo1  1  1.89707000  1.82056000  0.00389815  1
  Mo  Mo2  1  1.82253000  7.12456000  1.77154000  1
  Mo  Mo3  1  0.03781230  1.80835000  1.86974000  1
  Mo  Mo4  1  3.74370000  7.31424000  3.60440000  1
  Mo  Mo5  1  5.42312000  1.91529000  0.07385830  1
  Mo  Mo6  1  5.47923000  -0.02047240  1.80067000  1
  Mo  Mo7  1  3.61508000  1.84297000  1.79389000  1
  Mo  Mo8  1  7.38150000  3.60927000  -0.00725295  1
  Mo  Mo9  1  1.76455000  5.41351000  3.59749000  1
  Mo  Mo10  1  1.77769000  3.67528000  1.91216000  1
  Mo  Mo11  1  7.23352000  5.50783000  1.83682000  1
  Mo  Mo12  1  3.61085000  3.59415000  0.01153540  1
  Mo  Mo13  1  5.43908000  5.45656000  0.02109330  1
  Mo  Mo14  1  5.46634000  3.68207000  1.85741000  1
  Mo  Mo15  1  3.58482000  5.44003000  1.76288000  1
