# generated using pymatgen
data_Mo
_symmetry_space_group_name_H-M   'P 1'
_cell_length_a   7.28339199
_cell_length_b   7.28339199
_cell_length_c   3.64169598
_cell_angle_alpha   90.00000000
_cell_angle_beta   90.00000000
_cell_angle_gamma   90.00000000
_symmetry_Int_Tables_number   1
_chemical_formula_structural   Mo
_chemical_formula_sum   Mo16
_cell_volume   193.18395599
_cell_formula_units_Z   16
loop_
 _symmetry_equiv_pos_site_id
 _symmetry_equiv_pos_as_xyz
  1  'x, y, z'
loop_
 _atom_site_type_symbol
 _atom_site_label
 _atom_site_symmetry_multiplicity
 _atom_site_fract_x
 _atom_site_fract_y
 _atom_site_fract_z
 _atom_site_occupancy
  Mo  Mo0  1  -0.03184730  0.09532730  3.63554000  1
  Mo  Mo1  1  1.89999000  1.82436000  0.02680210  1
  Mo  Mo2  1  1.81218000  7.35012000  1.86160000  1
  Mo  Mo3  1  -0.00605921  1.85486000  1.78760000  1
  Mo  Mo4  1  3.69746000  7.13274000  3.61988000  1
  Mo  Mo5  1  5.42158000  1.82196000  -0.08295200  1
  Mo  Mo6  1  5.54276000  0.04045000  1.79170000  1
  Mo  Mo7  1  3.58054000  1.79179000  1.81600000  1
  Mo  Mo8  1  7.18793000  3.70570000  0.00567043  1
  Mo  Mo9  1  1.80565000  5.40673000  3.73441000  1
  Mo  Mo10  1  1.77318000  3.62788000  1.86776000  1
  Mo  Mo11  1  7.23326000  5.40914000  1.86423000  1
  Mo  Mo12  1  3.67328000  3.61185000  -0.08787500  1
  Mo  Mo13  1  5.47384000  5.45656000  -0.00093162  1
  Mo  Mo14  1  5.47943000  3.62933000  1.84042000  1
  Mo  Mo15  1  3.68082000  5.46522000  1.79045000  1
