# generated using pymatgen
data_Mo
_symmetry_space_group_name_H-M   'P 1'
_cell_length_a   7.28339199
_cell_length_b   7.28339199
_cell_length_c   3.64169598
_cell_angle_alpha   90.00000000
_cell_angle_beta   90.00000000
_cell_angle_gamma   90.00000000
_symmetry_Int_Tables_number   1
_chemical_formula_structural   Mo
_chemical_formula_sum   Mo16
_cell_volume   193.18395599
_cell_formula_units_Z   16
loop_
 _symmetry_equiv_pos_site_id
 _symmetry_equiv_pos_as_xyz
  1  'x, y, z'
loop_
 _atom_site_type_symbol
 _atom_site_label
 _atom_site_symmetry_multiplicity
 _atom_site_fract_x
 _atom_site_fract_y
 _atom_site_fract_z
 _atom_site_occupancy
  Mo  Mo0  1  -0.05499770  -0.04594500  3.61141000  1
  Mo  Mo1  1  1.87796000  1.74404000  0.01243170  1
  Mo  Mo2  1  1.86462000  7.32077000  1.73529000  1
  Mo  Mo3  1  0.06562790  1.79315000  1.80249000  1
  Mo  Mo4  1  3.67625000  7.21832000  3.61716000  1
  Mo  Mo5  1  5.47492000  1.86290000  -0.05185420  1
  Mo  Mo6  1  5.37707000  0.12430600  1.83444000  1
  Mo  Mo7  1  3.68753000  1.85840000  1.88386000  1
  Mo  Mo8  1  7.31481000  3.68541000  0.13220400  1
  Mo  Mo9  1  1.71983000  5.46176000  3.61190000  1
  Mo  Mo10  1  1.81491000  3.61526000  1.80739000  1
  Mo  Mo11  1  7.24369000  5.40217000  1.81167000  1
  Mo  Mo12  1  3.49909000  3.71138000  0.01425720  1
  Mo  Mo13  1  5.50224000  5.44409000  0.00339560  1
  Mo  Mo14  1  5.51532000  3.61238000  1.82371000  1
  Mo  Mo15  1  3.64513000  5.41561000  1.82054000  1
