# generated using pymatgen
data_Mo
_symmetry_space_group_name_H-M   'P 1'
_cell_length_a   7.28339199
_cell_length_b   7.28339199
_cell_length_c   3.64169598
_cell_angle_alpha   90.00000000
_cell_angle_beta   90.00000000
_cell_angle_gamma   90.00000000
_symmetry_Int_Tables_number   1
_chemical_formula_structural   Mo
_chemical_formula_sum   Mo16
_cell_volume   193.18395599
_cell_formula_units_Z   16
loop_
 _symmetry_equiv_pos_site_id
 _symmetry_equiv_pos_as_xyz
  1  'x, y, z'
loop_
 _atom_site_type_symbol
 _atom_site_label
 _atom_site_symmetry_multiplicity
 _atom_site_fract_x
 _atom_site_fract_y
 _atom_site_fract_z
 _atom_site_occupancy
  Mo  Mo0  1  0.00240914  -0.04913600  3.58014000  1
  Mo  Mo1  1  1.75484000  1.80968000  0.02038190  1
  Mo  Mo2  1  1.80333000  7.28653000  1.79728000  1
  Mo  Mo3  1  0.00809401  1.74431000  1.84990000  1
  Mo  Mo4  1  3.69373000  7.21817000  3.61079000  1
  Mo  Mo5  1  5.50923000  1.80495000  0.00889718  1
  Mo  Mo6  1  5.50718000  -0.00014139  1.84464000  1
  Mo  Mo7  1  3.59860000  1.79879000  1.74421000  1
  Mo  Mo8  1  7.32686000  3.70052000  0.06212540  1
  Mo  Mo9  1  1.86485000  5.57472000  3.62894000  1
  Mo  Mo10  1  1.82500000  3.67463000  1.80119000  1
  Mo  Mo11  1  7.26812000  5.46471000  1.86348000  1
  Mo  Mo12  1  3.59183000  3.67004000  -0.00675376  1
  Mo  Mo13  1  5.42320000  5.50202000  0.00716667  1
  Mo  Mo14  1  5.48150000  3.53116000  1.83493000  1
  Mo  Mo15  1  3.56523000  5.49305000  1.82299000  1
