# generated using pymatgen
data_Mo
_symmetry_space_group_name_H-M   'P 1'
_cell_length_a   7.28339199
_cell_length_b   7.28339199
_cell_length_c   3.64169598
_cell_angle_alpha   90.00000000
_cell_angle_beta   90.00000000
_cell_angle_gamma   90.00000000
_symmetry_Int_Tables_number   1
_chemical_formula_structural   Mo
_chemical_formula_sum   Mo16
_cell_volume   193.18395599
_cell_formula_units_Z   16
loop_
 _symmetry_equiv_pos_site_id
 _symmetry_equiv_pos_as_xyz
  1  'x, y, z'
loop_
 _atom_site_type_symbol
 _atom_site_label
 _atom_site_symmetry_multiplicity
 _atom_site_fract_x
 _atom_site_fract_y
 _atom_site_fract_z
 _atom_site_occupancy
  Mo  Mo0  1  -0.06943320  0.00017228  3.54929000  1
  Mo  Mo1  1  1.79227000  1.77063000  0.10860100  1
  Mo  Mo2  1  1.84706000  7.25351000  1.77202000  1
  Mo  Mo3  1  0.03631650  1.81097000  1.89318000  1
  Mo  Mo4  1  3.69464000  7.35914000  3.63225000  1
  Mo  Mo5  1  5.52461000  1.84599000  0.08170340  1
  Mo  Mo6  1  5.44260000  -0.00102997  1.82888000  1
  Mo  Mo7  1  3.59679000  1.77717000  1.78350000  1
  Mo  Mo8  1  7.31730000  3.65395000  -0.01794010  1
  Mo  Mo9  1  1.75002000  5.42091000  3.61251000  1
  Mo  Mo10  1  1.81877000  3.57227000  1.85977000  1
  Mo  Mo11  1  7.32764000  5.36792000  1.82159000  1
  Mo  Mo12  1  3.64849000  3.64117000  -0.00081887  1
  Mo  Mo13  1  5.54043000  5.52228000  -0.07568820  1
  Mo  Mo14  1  5.39561000  3.69807000  1.81894000  1
  Mo  Mo15  1  3.56089000  5.53088000  1.80250000  1
