# generated using pymatgen
data_Mo
_symmetry_space_group_name_H-M   'P 1'
_cell_length_a   7.28339199
_cell_length_b   7.28339199
_cell_length_c   3.64169598
_cell_angle_alpha   90.00000000
_cell_angle_beta   90.00000000
_cell_angle_gamma   90.00000000
_symmetry_Int_Tables_number   1
_chemical_formula_structural   Mo
_chemical_formula_sum   Mo16
_cell_volume   193.18395599
_cell_formula_units_Z   16
loop_
 _symmetry_equiv_pos_site_id
 _symmetry_equiv_pos_as_xyz
  1  'x, y, z'
loop_
 _atom_site_type_symbol
 _atom_site_label
 _atom_site_symmetry_multiplicity
 _atom_site_fract_x
 _atom_site_fract_y
 _atom_site_fract_z
 _atom_site_occupancy
  Mo  Mo0  1  -0.02573430  -0.03211490  3.56396000  1
  Mo  Mo1  1  1.82387000  1.74802000  -0.04031310  1
  Mo  Mo2  1  1.77916000  7.31533000  1.82050000  1
  Mo  Mo3  1  -0.03472790  1.82561000  1.78241000  1
  Mo  Mo4  1  3.74317000  7.22855000  3.58669000  1
  Mo  Mo5  1  5.37656000  1.96144000  -0.03690550  1
  Mo  Mo6  1  5.52697000  0.08353750  1.81576000  1
  Mo  Mo7  1  3.60369000  1.87832000  1.85609000  1
  Mo  Mo8  1  7.26623000  3.67165000  0.00024087  1
  Mo  Mo9  1  1.89674000  5.45290000  3.72142000  1
  Mo  Mo10  1  1.83938000  3.58688000  1.88438000  1
  Mo  Mo11  1  7.28807000  5.37348000  1.73589000  1
  Mo  Mo12  1  3.64505000  3.64368000  0.10174000  1
  Mo  Mo13  1  5.40976000  5.42459000  -0.04070760  1
  Mo  Mo14  1  5.43072000  3.57353000  1.88609000  1
  Mo  Mo15  1  3.65510000  5.48860000  1.83306000  1
