# generated using pymatgen
data_Mo
_symmetry_space_group_name_H-M   'P 1'
_cell_length_a   7.28339199
_cell_length_b   7.28339199
_cell_length_c   3.64169598
_cell_angle_alpha   90.00000000
_cell_angle_beta   90.00000000
_cell_angle_gamma   90.00000000
_symmetry_Int_Tables_number   1
_chemical_formula_structural   Mo
_chemical_formula_sum   Mo16
_cell_volume   193.18395599
_cell_formula_units_Z   16
loop_
 _symmetry_equiv_pos_site_id
 _symmetry_equiv_pos_as_xyz
  1  'x, y, z'
loop_
 _atom_site_type_symbol
 _atom_site_label
 _atom_site_symmetry_multiplicity
 _atom_site_fract_x
 _atom_site_fract_y
 _atom_site_fract_z
 _atom_site_occupancy
  Mo  Mo0  1  0.06168580  0.00070476  3.59753000  1
  Mo  Mo1  1  1.85234000  1.88171000  -0.08993860  1
  Mo  Mo2  1  1.80200000  7.25394000  1.85419000  1
  Mo  Mo3  1  -0.02376800  1.81714000  1.74887000  1
  Mo  Mo4  1  3.63631000  7.33306000  3.67438000  1
  Mo  Mo5  1  5.45648000  1.78424000  -0.07763800  1
  Mo  Mo6  1  5.35286000  0.01075600  1.79215000  1
  Mo  Mo7  1  3.66907000  1.76615000  1.82577000  1
  Mo  Mo8  1  7.24288000  3.61022000  -0.04614370  1
  Mo  Mo9  1  1.79311000  5.43298000  3.72894000  1
  Mo  Mo10  1  1.81653000  3.64229000  1.82510000  1
  Mo  Mo11  1  7.22873000  5.49425000  1.84009000  1
  Mo  Mo12  1  3.61755000  3.56945000  0.11091200  1
  Mo  Mo13  1  5.53478000  5.43030000  0.01661860  1
  Mo  Mo14  1  5.48345000  3.71925000  1.76925000  1
  Mo  Mo15  1  3.70001000  5.47758000  1.90023000  1
