# generated using pymatgen
data_Mo
_symmetry_space_group_name_H-M   'P 1'
_cell_length_a   7.28339199
_cell_length_b   7.28339199
_cell_length_c   3.64169598
_cell_angle_alpha   90.00000000
_cell_angle_beta   90.00000000
_cell_angle_gamma   90.00000000
_symmetry_Int_Tables_number   1
_chemical_formula_structural   Mo
_chemical_formula_sum   Mo16
_cell_volume   193.18395599
_cell_formula_units_Z   16
loop_
 _symmetry_equiv_pos_site_id
 _symmetry_equiv_pos_as_xyz
  1  'x, y, z'
loop_
 _atom_site_type_symbol
 _atom_site_label
 _atom_site_symmetry_multiplicity
 _atom_site_fract_x
 _atom_site_fract_y
 _atom_site_fract_z
 _atom_site_occupancy
  Mo  Mo0  1  -0.05605580  0.03003820  3.60845000  1
  Mo  Mo1  1  1.73384000  1.79162000  0.04098760  1
  Mo  Mo2  1  1.85751000  7.16817000  1.74514000  1
  Mo  Mo3  1  -0.04991880  1.89095000  1.85525000  1
  Mo  Mo4  1  3.68117000  7.36029000  3.64657000  1
  Mo  Mo5  1  5.51513000  1.88718000  0.06877650  1
  Mo  Mo6  1  5.40656000  0.02912140  1.75868000  1
  Mo  Mo7  1  3.64564000  1.79335000  1.84799000  1
  Mo  Mo8  1  7.32360000  3.54136000  0.03024850  1
  Mo  Mo9  1  1.89517000  5.45271000  3.56233000  1
  Mo  Mo10  1  1.86158000  3.65077000  1.82073000  1
  Mo  Mo11  1  7.30519000  5.41254000  1.80582000  1
  Mo  Mo12  1  3.54394000  3.65863000  0.03804610  1
  Mo  Mo13  1  5.46685000  5.38051000  -0.00579960  1
  Mo  Mo14  1  5.38568000  3.73370000  1.80579000  1
  Mo  Mo15  1  3.70810000  5.44307000  1.84131000  1
