# generated using pymatgen
data_Mo
_symmetry_space_group_name_H-M   'P 1'
_cell_length_a   7.27806742
_cell_length_b   7.27806742
_cell_length_c   3.63903379
_cell_angle_alpha   90.00000000
_cell_angle_beta   90.00000000
_cell_angle_gamma   90.00000000
_symmetry_Int_Tables_number   1
_chemical_formula_structural   Mo
_chemical_formula_sum   Mo16
_cell_volume   192.76058556
_cell_formula_units_Z   16
loop_
 _symmetry_equiv_pos_site_id
 _symmetry_equiv_pos_as_xyz
  1  'x, y, z'
loop_
 _atom_site_type_symbol
 _atom_site_label
 _atom_site_symmetry_multiplicity
 _atom_site_fract_x
 _atom_site_fract_y
 _atom_site_fract_z
 _atom_site_occupancy
  Mo  Mo0  1  -0.00076410  7.28424000  3.62423000  1
  Mo  Mo1  1  1.84700000  1.81747000  0.00573669  1
  Mo  Mo2  1  1.80348000  7.25611000  1.83933000  1
  Mo  Mo3  1  7.28237000  1.81696000  1.83737000  1
  Mo  Mo4  1  3.62636000  7.28410000  0.01882420  1
  Mo  Mo5  1  5.45613000  1.81559000  0.00184359  1
  Mo  Mo6  1  5.45296000  -0.00179117  1.85265000  1
  Mo  Mo7  1  3.63887000  1.83586000  1.81770000  1
  Mo  Mo8  1  7.27184000  3.62317000  3.61265000  1
  Mo  Mo9  1  1.82794000  5.45759000  3.61715000  1
  Mo  Mo10  1  1.81545000  3.64774000  1.80829000  1
  Mo  Mo11  1  0.00770967  5.46480000  1.79142000  1
  Mo  Mo12  1  3.64393000  3.63524000  3.65500000  1
  Mo  Mo13  1  5.46169000  5.45760000  3.63587000  1
  Mo  Mo14  1  5.44346000  3.65643000  1.81809000  1
  Mo  Mo15  1  3.64557000  5.45096000  1.81487000  1
