# generated using pymatgen
data_Mo
_symmetry_space_group_name_H-M   'P 1'
_cell_length_a   7.28339199
_cell_length_b   7.28339199
_cell_length_c   3.64169598
_cell_angle_alpha   90.00000000
_cell_angle_beta   90.00000000
_cell_angle_gamma   90.00000000
_symmetry_Int_Tables_number   1
_chemical_formula_structural   Mo
_chemical_formula_sum   Mo16
_cell_volume   193.18395599
_cell_formula_units_Z   16
loop_
 _symmetry_equiv_pos_site_id
 _symmetry_equiv_pos_as_xyz
  1  'x, y, z'
loop_
 _atom_site_type_symbol
 _atom_site_label
 _atom_site_symmetry_multiplicity
 _atom_site_fract_x
 _atom_site_fract_y
 _atom_site_fract_z
 _atom_site_occupancy
  Mo  Mo0  1  0.02686350  0.06708680  3.70057000  1
  Mo  Mo1  1  1.90225000  1.80275000  -0.05261060  1
  Mo  Mo2  1  1.69251000  7.32824000  1.83932000  1
  Mo  Mo3  1  -0.00803466  1.79129000  1.85325000  1
  Mo  Mo4  1  3.64071000  7.17531000  3.58845000  1
  Mo  Mo5  1  5.45151000  1.74601000  -0.02469960  1
  Mo  Mo6  1  5.50171000  0.00655816  1.90917000  1
  Mo  Mo7  1  3.65774000  1.77776000  1.77044000  1
  Mo  Mo8  1  7.26490000  3.61922000  0.01314490  1
  Mo  Mo9  1  1.78838000  5.53090000  3.70504000  1
  Mo  Mo10  1  1.81834000  3.69969000  1.74859000  1
  Mo  Mo11  1  7.30058000  5.43872000  1.84071000  1
  Mo  Mo12  1  3.64410000  3.68769000  0.01958680  1
  Mo  Mo13  1  5.47941000  5.43304000  0.01419850  1
  Mo  Mo14  1  5.52156000  3.63563000  1.81042000  1
  Mo  Mo15  1  3.54147000  5.48410000  1.73471000  1
