# generated using pymatgen
data_Mo
_symmetry_space_group_name_H-M   'P 1'
_cell_length_a   7.28339199
_cell_length_b   7.28339199
_cell_length_c   3.64169598
_cell_angle_alpha   90.00000000
_cell_angle_beta   90.00000000
_cell_angle_gamma   90.00000000
_symmetry_Int_Tables_number   1
_chemical_formula_structural   Mo
_chemical_formula_sum   Mo16
_cell_volume   193.18395599
_cell_formula_units_Z   16
loop_
 _symmetry_equiv_pos_site_id
 _symmetry_equiv_pos_as_xyz
  1  'x, y, z'
loop_
 _atom_site_type_symbol
 _atom_site_label
 _atom_site_symmetry_multiplicity
 _atom_site_fract_x
 _atom_site_fract_y
 _atom_site_fract_z
 _atom_site_occupancy
  Mo  Mo0  1  -0.02646800  -0.02844710  3.68074000  1
  Mo  Mo1  1  1.74598000  1.74975000  -0.04277280  1
  Mo  Mo2  1  1.77785000  7.36743000  1.83358000  1
  Mo  Mo3  1  0.00331888  1.71703000  1.82228000  1
  Mo  Mo4  1  3.64000000  7.18196000  3.59095000  1
  Mo  Mo5  1  5.46392000  1.86015000  -0.02500740  1
  Mo  Mo6  1  5.36965000  0.08600700  1.85542000  1
  Mo  Mo7  1  3.67501000  1.92537000  1.87245000  1
  Mo  Mo8  1  7.30150000  3.61361000  -0.00041595  1
  Mo  Mo9  1  1.79708000  5.57500000  3.68194000  1
  Mo  Mo10  1  1.86149000  3.59088000  1.74453000  1
  Mo  Mo11  1  7.29566000  5.43620000  1.80555000  1
  Mo  Mo12  1  3.55487000  3.72782000  0.02799900  1
  Mo  Mo13  1  5.52391000  5.41242000  -0.04103200  1
  Mo  Mo14  1  5.51823000  3.56433000  1.78030000  1
  Mo  Mo15  1  3.72201000  5.44448000  1.88381000  1
