# generated using pymatgen
data_Mo
_symmetry_space_group_name_H-M   'P 1'
_cell_length_a   7.28339199
_cell_length_b   7.28339199
_cell_length_c   3.64169598
_cell_angle_alpha   90.00000000
_cell_angle_beta   90.00000000
_cell_angle_gamma   90.00000000
_symmetry_Int_Tables_number   1
_chemical_formula_structural   Mo
_chemical_formula_sum   Mo16
_cell_volume   193.18395599
_cell_formula_units_Z   16
loop_
 _symmetry_equiv_pos_site_id
 _symmetry_equiv_pos_as_xyz
  1  'x, y, z'
loop_
 _atom_site_type_symbol
 _atom_site_label
 _atom_site_symmetry_multiplicity
 _atom_site_fract_x
 _atom_site_fract_y
 _atom_site_fract_z
 _atom_site_occupancy
  Mo  Mo0  1  0.02318560  0.00235917  3.58959000  1
  Mo  Mo1  1  1.76854000  1.88291000  -0.03186870  1
  Mo  Mo2  1  1.81315000  7.20941000  1.83072000  1
  Mo  Mo3  1  -0.00590683  1.84853000  1.85997000  1
  Mo  Mo4  1  3.64922000  7.29174000  3.60924000  1
  Mo  Mo5  1  5.59553000  1.70469000  -0.03508440  1
  Mo  Mo6  1  5.35615000  -0.00935138  1.77700000  1
  Mo  Mo7  1  3.70693000  1.80598000  1.79110000  1
  Mo  Mo8  1  7.21814000  3.61708000  0.08186590  1
  Mo  Mo9  1  1.81420000  5.52768000  3.67718000  1
  Mo  Mo10  1  1.77489000  3.71475000  1.74777000  1
  Mo  Mo11  1  7.24215000  5.50991000  1.92345000  1
  Mo  Mo12  1  3.64585000  3.59612000  0.03165630  1
  Mo  Mo13  1  5.48162000  5.44768000  0.06659810  1
  Mo  Mo14  1  5.50054000  3.70561000  1.76051000  1
  Mo  Mo15  1  3.63980000  5.36889000  1.79061000  1
