# generated using pymatgen
data_Mo
_symmetry_space_group_name_H-M   'P 1'
_cell_length_a   7.28339199
_cell_length_b   7.28339199
_cell_length_c   3.64169598
_cell_angle_alpha   90.00000000
_cell_angle_beta   90.00000000
_cell_angle_gamma   90.00000000
_symmetry_Int_Tables_number   1
_chemical_formula_structural   Mo
_chemical_formula_sum   Mo16
_cell_volume   193.18395599
_cell_formula_units_Z   16
loop_
 _symmetry_equiv_pos_site_id
 _symmetry_equiv_pos_as_xyz
  1  'x, y, z'
loop_
 _atom_site_type_symbol
 _atom_site_label
 _atom_site_symmetry_multiplicity
 _atom_site_fract_x
 _atom_site_fract_y
 _atom_site_fract_z
 _atom_site_occupancy
  Mo  Mo0  1  0.01933630  -0.00791760  3.63694000  1
  Mo  Mo1  1  1.86309000  1.82417000  -0.03383080  1
  Mo  Mo2  1  1.82168000  7.28972000  1.88482000  1
  Mo  Mo3  1  -0.00856726  1.85713000  1.79745000  1
  Mo  Mo4  1  3.61451000  7.19867000  3.66524000  1
  Mo  Mo5  1  5.44302000  1.88343000  -0.00321419  1
  Mo  Mo6  1  5.35598000  0.03766150  1.83426000  1
  Mo  Mo7  1  3.71770000  1.86669000  1.94077000  1
  Mo  Mo8  1  7.23883000  3.62449000  -0.03568260  1
  Mo  Mo9  1  1.78478000  5.40934000  3.63627000  1
  Mo  Mo10  1  1.85309000  3.62264000  1.82119000  1
  Mo  Mo11  1  7.22465000  5.46959000  1.72655000  1
  Mo  Mo12  1  3.61504000  3.69876000  0.07958960  1
  Mo  Mo13  1  5.50648000  5.41573000  -0.06355910  1
  Mo  Mo14  1  5.48652000  3.60278000  1.78033000  1
  Mo  Mo15  1  3.68786000  5.43112000  1.80317000  1
