# generated using pymatgen
data_Mo
_symmetry_space_group_name_H-M   'P 1'
_cell_length_a   7.28339199
_cell_length_b   7.28339199
_cell_length_c   3.64169598
_cell_angle_alpha   90.00000000
_cell_angle_beta   90.00000000
_cell_angle_gamma   90.00000000
_symmetry_Int_Tables_number   1
_chemical_formula_structural   Mo
_chemical_formula_sum   Mo16
_cell_volume   193.18395599
_cell_formula_units_Z   16
loop_
 _symmetry_equiv_pos_site_id
 _symmetry_equiv_pos_as_xyz
  1  'x, y, z'
loop_
 _atom_site_type_symbol
 _atom_site_label
 _atom_site_symmetry_multiplicity
 _atom_site_fract_x
 _atom_site_fract_y
 _atom_site_fract_z
 _atom_site_occupancy
  Mo  Mo0  1  0.07073370  -0.02433300  3.52502000  1
  Mo  Mo1  1  1.80466000  1.84790000  0.01284960  1
  Mo  Mo2  1  1.81337000  7.22658000  1.83785000  1
  Mo  Mo3  1  -0.04860070  1.81831000  1.84250000  1
  Mo  Mo4  1  3.65391000  7.34144000  3.65859000  1
  Mo  Mo5  1  5.48856000  1.79683000  0.00505653  1
  Mo  Mo6  1  5.35998000  0.06250000  1.84213000  1
  Mo  Mo7  1  3.64944000  1.88550000  1.93407000  1
  Mo  Mo8  1  7.20704000  3.57766000  -0.04221480  1
  Mo  Mo9  1  1.94689000  5.43937000  3.62194000  1
  Mo  Mo10  1  1.80258000  3.60616000  1.75038000  1
  Mo  Mo11  1  7.35525000  5.43336000  1.78792000  1
  Mo  Mo12  1  3.62630000  3.56614000  0.08886230  1
  Mo  Mo13  1  5.41298000  5.49387000  0.00272702  1
  Mo  Mo14  1  5.46665000  3.73822000  1.80578000  1
  Mo  Mo15  1  3.61426000  5.41449000  1.79685000  1
