# generated using pymatgen
data_Mo
_symmetry_space_group_name_H-M   'P 1'
_cell_length_a   7.28339199
_cell_length_b   7.28339199
_cell_length_c   3.64169598
_cell_angle_alpha   90.00000000
_cell_angle_beta   90.00000000
_cell_angle_gamma   90.00000000
_symmetry_Int_Tables_number   1
_chemical_formula_structural   Mo
_chemical_formula_sum   Mo16
_cell_volume   193.18395599
_cell_formula_units_Z   16
loop_
 _symmetry_equiv_pos_site_id
 _symmetry_equiv_pos_as_xyz
  1  'x, y, z'
loop_
 _atom_site_type_symbol
 _atom_site_label
 _atom_site_symmetry_multiplicity
 _atom_site_fract_x
 _atom_site_fract_y
 _atom_site_fract_z
 _atom_site_occupancy
  Mo  Mo0  1  0.04434180  -0.10544100  3.57230000  1
  Mo  Mo1  1  1.88885000  1.93122000  -0.01572070  1
  Mo  Mo2  1  1.73857000  7.25959000  1.83822000  1
  Mo  Mo3  1  0.05580790  1.77946000  1.88773000  1
  Mo  Mo4  1  3.64739000  7.20941000  3.55385000  1
  Mo  Mo5  1  5.45215000  1.82460000  0.09069490  1
  Mo  Mo6  1  5.42285000  0.07642760  1.78996000  1
  Mo  Mo7  1  3.66692000  1.82504000  1.87143000  1
  Mo  Mo8  1  7.23152000  3.74099000  -0.00408412  1
  Mo  Mo9  1  1.79376000  5.38096000  3.61031000  1
  Mo  Mo10  1  1.82003000  3.54874000  1.75324000  1
  Mo  Mo11  1  7.25179000  5.37225000  1.81760000  1
  Mo  Mo12  1  3.62862000  3.63022000  0.06670660  1
  Mo  Mo13  1  5.43993000  5.57772000  0.02242110  1
  Mo  Mo14  1  5.55925000  3.64284000  1.81509000  1
  Mo  Mo15  1  3.58222000  5.52998000  1.80056000  1
