# generated using pymatgen
data_Mo
_symmetry_space_group_name_H-M   'P 1'
_cell_length_a   7.28339199
_cell_length_b   7.28339199
_cell_length_c   3.64169598
_cell_angle_alpha   90.00000000
_cell_angle_beta   90.00000000
_cell_angle_gamma   90.00000000
_symmetry_Int_Tables_number   1
_chemical_formula_structural   Mo
_chemical_formula_sum   Mo16
_cell_volume   193.18395599
_cell_formula_units_Z   16
loop_
 _symmetry_equiv_pos_site_id
 _symmetry_equiv_pos_as_xyz
  1  'x, y, z'
loop_
 _atom_site_type_symbol
 _atom_site_label
 _atom_site_symmetry_multiplicity
 _atom_site_fract_x
 _atom_site_fract_y
 _atom_site_fract_z
 _atom_site_occupancy
  Mo  Mo0  1  0.02397190  -0.01075220  3.73334000  1
  Mo  Mo1  1  1.79792000  1.84277000  0.04720910  1
  Mo  Mo2  1  1.82539000  7.30658000  1.82288000  1
  Mo  Mo3  1  0.02489110  1.80290000  1.79826000  1
  Mo  Mo4  1  3.53224000  7.25921000  3.66436000  1
  Mo  Mo5  1  5.43685000  1.81032000  0.03712210  1
  Mo  Mo6  1  5.47555000  -0.10729200  1.80448000  1
  Mo  Mo7  1  3.67862000  1.79416000  1.82165000  1
  Mo  Mo8  1  7.35047000  3.67105000  0.01255020  1
  Mo  Mo9  1  1.69081000  5.48209000  3.55042000  1
  Mo  Mo10  1  1.84689000  3.62178000  1.80706000  1
  Mo  Mo11  1  7.31604000  5.53366000  1.86996000  1
  Mo  Mo12  1  3.68849000  3.67400000  -0.14151100  1
  Mo  Mo13  1  5.50858000  5.47055000  0.00043911  1
  Mo  Mo14  1  5.41510000  3.60858000  1.83858000  1
  Mo  Mo15  1  3.61219000  5.46439000  1.80350000  1
