# generated using pymatgen
data_Mo
_symmetry_space_group_name_H-M   'P 1'
_cell_length_a   7.28339199
_cell_length_b   7.28339199
_cell_length_c   3.64169598
_cell_angle_alpha   90.00000000
_cell_angle_beta   90.00000000
_cell_angle_gamma   90.00000000
_symmetry_Int_Tables_number   1
_chemical_formula_structural   Mo
_chemical_formula_sum   Mo16
_cell_volume   193.18395599
_cell_formula_units_Z   16
loop_
 _symmetry_equiv_pos_site_id
 _symmetry_equiv_pos_as_xyz
  1  'x, y, z'
loop_
 _atom_site_type_symbol
 _atom_site_label
 _atom_site_symmetry_multiplicity
 _atom_site_fract_x
 _atom_site_fract_y
 _atom_site_fract_z
 _atom_site_occupancy
  Mo  Mo0  1  -0.12286400  0.05182500  3.64727000  1
  Mo  Mo1  1  1.83774000  1.80431000  0.00549540  1
  Mo  Mo2  1  1.81855000  7.23157000  1.83658000  1
  Mo  Mo3  1  -0.06755700  1.74431000  1.77883000  1
  Mo  Mo4  1  3.68263000  7.40325000  3.75921000  1
  Mo  Mo5  1  5.38373000  1.79223000  0.00018644  1
  Mo  Mo6  1  5.49947000  -0.06910380  1.86249000  1
  Mo  Mo7  1  3.53276000  1.84847000  1.74662000  1
  Mo  Mo8  1  7.38326000  3.52951000  -0.04014940  1
  Mo  Mo9  1  1.83924000  5.47431000  3.64482000  1
  Mo  Mo10  1  1.76248000  3.73683000  1.87875000  1
  Mo  Mo11  1  7.32461000  5.55799000  1.83642000  1
  Mo  Mo12  1  3.68751000  3.66413000  -0.08498960  1
  Mo  Mo13  1  5.53024000  5.39435000  0.03467680  1
  Mo  Mo14  1  5.49185000  3.62565000  1.77907000  1
  Mo  Mo15  1  3.64035000  5.43439000  1.78503000  1
