# generated using pymatgen
data_Mo
_symmetry_space_group_name_H-M   'P 1'
_cell_length_a   7.27806742
_cell_length_b   7.27806742
_cell_length_c   3.63903379
_cell_angle_alpha   90.00000000
_cell_angle_beta   90.00000000
_cell_angle_gamma   90.00000000
_symmetry_Int_Tables_number   1
_chemical_formula_structural   Mo
_chemical_formula_sum   Mo16
_cell_volume   192.76058556
_cell_formula_units_Z   16
loop_
 _symmetry_equiv_pos_site_id
 _symmetry_equiv_pos_as_xyz
  1  'x, y, z'
loop_
 _atom_site_type_symbol
 _atom_site_label
 _atom_site_symmetry_multiplicity
 _atom_site_fract_x
 _atom_site_fract_y
 _atom_site_fract_z
 _atom_site_occupancy
  Mo  Mo0  1  -0.00423208  7.28543000  3.63146000  1
  Mo  Mo1  1  1.81824000  1.80993000  0.00907701  1
  Mo  Mo2  1  1.80428000  7.26043000  1.81212000  1
  Mo  Mo3  1  7.28047000  1.81786000  1.81800000  1
  Mo  Mo4  1  3.62737000  7.31427000  0.00170924  1
  Mo  Mo5  1  5.46879000  1.81131000  0.03707010  1
  Mo  Mo6  1  5.45043000  -0.01245420  1.84430000  1
  Mo  Mo7  1  3.64769000  1.81487000  1.83250000  1
  Mo  Mo8  1  7.30100000  3.63998000  3.62232000  1
  Mo  Mo9  1  1.82762000  5.47507000  3.64826000  1
  Mo  Mo10  1  1.81972000  3.63991000  1.79980000  1
  Mo  Mo11  1  -0.00954994  5.44789000  1.81447000  1
  Mo  Mo12  1  3.63283000  3.63290000  3.64063000  1
  Mo  Mo13  1  5.47468000  5.45204000  3.62133000  1
  Mo  Mo14  1  5.44678000  3.65959000  1.80239000  1
  Mo  Mo15  1  3.63787000  5.45303000  1.81559000  1
