# generated using pymatgen
data_Mo
_symmetry_space_group_name_H-M   'P 1'
_cell_length_a   7.28339199
_cell_length_b   7.28339199
_cell_length_c   3.64169598
_cell_angle_alpha   90.00000000
_cell_angle_beta   90.00000000
_cell_angle_gamma   90.00000000
_symmetry_Int_Tables_number   1
_chemical_formula_structural   Mo
_chemical_formula_sum   Mo16
_cell_volume   193.18395599
_cell_formula_units_Z   16
loop_
 _symmetry_equiv_pos_site_id
 _symmetry_equiv_pos_as_xyz
  1  'x, y, z'
loop_
 _atom_site_type_symbol
 _atom_site_label
 _atom_site_symmetry_multiplicity
 _atom_site_fract_x
 _atom_site_fract_y
 _atom_site_fract_z
 _atom_site_occupancy
  Mo  Mo0  1  0.14188600  -0.02203590  3.65443000  1
  Mo  Mo1  1  1.86346000  1.91771000  -0.01326170  1
  Mo  Mo2  1  1.78406000  7.27575000  1.81406000  1
  Mo  Mo3  1  -0.02756660  1.80789000  1.94536000  1
  Mo  Mo4  1  3.58384000  7.27535000  3.58797000  1
  Mo  Mo5  1  5.42300000  1.77657000  0.03753610  1
  Mo  Mo6  1  5.34440000  0.01175140  1.86398000  1
  Mo  Mo7  1  3.65803000  1.81329000  1.83553000  1
  Mo  Mo8  1  7.21821000  3.59495000  0.07437190  1
  Mo  Mo9  1  1.82197000  5.39744000  3.56869000  1
  Mo  Mo10  1  1.83011000  3.63016000  1.76966000  1
  Mo  Mo11  1  7.23814000  5.41505000  1.78521000  1
  Mo  Mo12  1  3.63001000  3.64954000  0.03053180  1
  Mo  Mo13  1  5.54386000  5.48798000  0.00311927  1
  Mo  Mo14  1  5.51649000  3.68695000  1.82726000  1
  Mo  Mo15  1  3.65409000  5.50565000  1.68586000  1
