# generated using pymatgen
data_Mo
_symmetry_space_group_name_H-M   'P 1'
_cell_length_a   7.28339199
_cell_length_b   7.28339199
_cell_length_c   3.64169598
_cell_angle_alpha   90.00000000
_cell_angle_beta   90.00000000
_cell_angle_gamma   90.00000000
_symmetry_Int_Tables_number   1
_chemical_formula_structural   Mo
_chemical_formula_sum   Mo16
_cell_volume   193.18395599
_cell_formula_units_Z   16
loop_
 _symmetry_equiv_pos_site_id
 _symmetry_equiv_pos_as_xyz
  1  'x, y, z'
loop_
 _atom_site_type_symbol
 _atom_site_label
 _atom_site_symmetry_multiplicity
 _atom_site_fract_x
 _atom_site_fract_y
 _atom_site_fract_z
 _atom_site_occupancy
  Mo  Mo0  1  0.08401280  -0.00174855  3.63992000  1
  Mo  Mo1  1  1.85419000  1.95533000  -0.07108990  1
  Mo  Mo2  1  1.78189000  7.39142000  1.87813000  1
  Mo  Mo3  1  -0.06939130  1.83128000  1.82051000  1
  Mo  Mo4  1  3.67822000  7.19895000  3.61492000  1
  Mo  Mo5  1  5.35556000  1.73103000  -0.02637400  1
  Mo  Mo6  1  5.43368000  0.01774440  1.80494000  1
  Mo  Mo7  1  3.66999000  1.75757000  1.80678000  1
  Mo  Mo8  1  7.20293000  3.72070000  0.00700855  1
  Mo  Mo9  1  1.87636000  5.44852000  3.70976000  1
  Mo  Mo10  1  1.81711000  3.58836000  1.75926000  1
  Mo  Mo11  1  7.32939000  5.39009000  1.82757000  1
  Mo  Mo12  1  3.60396000  3.61507000  0.01098130  1
  Mo  Mo13  1  5.45807000  5.48047000  0.05572200  1
  Mo  Mo14  1  5.52194000  3.60927000  1.77328000  1
  Mo  Mo15  1  3.62608000  5.48995000  1.85898000  1
