# generated using pymatgen
data_Mo
_symmetry_space_group_name_H-M   'P 1'
_cell_length_a   7.28339199
_cell_length_b   7.28339199
_cell_length_c   3.64169598
_cell_angle_alpha   90.00000000
_cell_angle_beta   90.00000000
_cell_angle_gamma   90.00000000
_symmetry_Int_Tables_number   1
_chemical_formula_structural   Mo
_chemical_formula_sum   Mo16
_cell_volume   193.18395599
_cell_formula_units_Z   16
loop_
 _symmetry_equiv_pos_site_id
 _symmetry_equiv_pos_as_xyz
  1  'x, y, z'
loop_
 _atom_site_type_symbol
 _atom_site_label
 _atom_site_symmetry_multiplicity
 _atom_site_fract_x
 _atom_site_fract_y
 _atom_site_fract_z
 _atom_site_occupancy
  Mo  Mo0  1  -0.07533660  0.04833510  3.61865000  1
  Mo  Mo1  1  1.81515000  1.81811000  0.06569940  1
  Mo  Mo2  1  1.81855000  7.25143000  1.84077000  1
  Mo  Mo3  1  0.07812640  1.81050000  1.89981000  1
  Mo  Mo4  1  3.72097000  7.21011000  3.58822000  1
  Mo  Mo5  1  5.53317000  1.86778000  0.09875340  1
  Mo  Mo6  1  5.38054000  -0.06863400  1.85708000  1
  Mo  Mo7  1  3.58748000  1.82602000  1.79119000  1
  Mo  Mo8  1  7.25800000  3.73686000  -0.05648710  1
  Mo  Mo9  1  1.79553000  5.61782000  3.61808000  1
  Mo  Mo10  1  1.91328000  3.64889000  1.70718000  1
  Mo  Mo11  1  7.22145000  5.44252000  1.89356000  1
  Mo  Mo12  1  3.68775000  3.60293000  0.00814452  1
  Mo  Mo13  1  5.47744000  5.39167000  -0.03447160  1
  Mo  Mo14  1  5.39378000  3.59541000  1.81021000  1
  Mo  Mo15  1  3.61812000  5.42426000  1.76392000  1
