# generated using pymatgen
data_Mo
_symmetry_space_group_name_H-M   'P 1'
_cell_length_a   7.28339199
_cell_length_b   7.28339199
_cell_length_c   3.64169598
_cell_angle_alpha   90.00000000
_cell_angle_beta   90.00000000
_cell_angle_gamma   90.00000000
_symmetry_Int_Tables_number   1
_chemical_formula_structural   Mo
_chemical_formula_sum   Mo16
_cell_volume   193.18395599
_cell_formula_units_Z   16
loop_
 _symmetry_equiv_pos_site_id
 _symmetry_equiv_pos_as_xyz
  1  'x, y, z'
loop_
 _atom_site_type_symbol
 _atom_site_label
 _atom_site_symmetry_multiplicity
 _atom_site_fract_x
 _atom_site_fract_y
 _atom_site_fract_z
 _atom_site_occupancy
  Mo  Mo0  1  -0.00013328  -0.03197880  3.64428000  1
  Mo  Mo1  1  1.81077000  1.82840000  -0.05443260  1
  Mo  Mo2  1  1.68611000  7.21430000  1.78522000  1
  Mo  Mo3  1  -0.01635570  1.84481000  1.78013000  1
  Mo  Mo4  1  3.58850000  7.36307000  3.63054000  1
  Mo  Mo5  1  5.42424000  1.79751000  0.04754050  1
  Mo  Mo6  1  5.53058000  -0.02380480  1.85420000  1
  Mo  Mo7  1  3.74025000  1.78294000  1.83882000  1
  Mo  Mo8  1  7.29718000  3.63759000  0.03146980  1
  Mo  Mo9  1  1.74256000  5.44127000  3.56004000  1
  Mo  Mo10  1  1.89013000  3.68651000  1.79935000  1
  Mo  Mo11  1  7.25710000  5.45612000  1.86772000  1
  Mo  Mo12  1  3.68652000  3.70654000  0.02901470  1
  Mo  Mo13  1  5.50000000  5.43971000  -0.02448330  1
  Mo  Mo14  1  5.45049000  3.60483000  1.85948000  1
  Mo  Mo15  1  3.63608000  5.47618000  1.82141000  1
