# generated using pymatgen
data_Mo
_symmetry_space_group_name_H-M   'P 1'
_cell_length_a   7.28339199
_cell_length_b   7.28339199
_cell_length_c   3.64169598
_cell_angle_alpha   90.00000000
_cell_angle_beta   90.00000000
_cell_angle_gamma   90.00000000
_symmetry_Int_Tables_number   1
_chemical_formula_structural   Mo
_chemical_formula_sum   Mo16
_cell_volume   193.18395599
_cell_formula_units_Z   16
loop_
 _symmetry_equiv_pos_site_id
 _symmetry_equiv_pos_as_xyz
  1  'x, y, z'
loop_
 _atom_site_type_symbol
 _atom_site_label
 _atom_site_symmetry_multiplicity
 _atom_site_fract_x
 _atom_site_fract_y
 _atom_site_fract_z
 _atom_site_occupancy
  Mo  Mo0  1  -0.06973550  0.03406700  3.68254000  1
  Mo  Mo1  1  1.85279000  1.85303000  -0.00138064  1
  Mo  Mo2  1  1.72226000  7.29705000  1.78703000  1
  Mo  Mo3  1  -0.04744740  1.84922000  1.86473000  1
  Mo  Mo4  1  3.67864000  7.14432000  3.56910000  1
  Mo  Mo5  1  5.50105000  1.80585000  0.00693355  1
  Mo  Mo6  1  5.55485000  0.03694340  1.83953000  1
  Mo  Mo7  1  3.63532000  1.80402000  1.76962000  1
  Mo  Mo8  1  7.23336000  3.66283000  -0.00711232  1
  Mo  Mo9  1  1.77072000  5.47883000  3.69346000  1
  Mo  Mo10  1  1.85066000  3.70239000  1.82588000  1
  Mo  Mo11  1  7.26249000  5.39018000  1.81970000  1
  Mo  Mo12  1  3.67918000  3.61596000  -0.03853740  1
  Mo  Mo13  1  5.51497000  5.44989000  0.02703750  1
  Mo  Mo14  1  5.44123000  3.58659000  1.83670000  1
  Mo  Mo15  1  3.64367000  5.51283000  1.79508000  1
