# generated using pymatgen
data_Mo
_symmetry_space_group_name_H-M   'P 1'
_cell_length_a   7.28339199
_cell_length_b   7.28339199
_cell_length_c   3.64169598
_cell_angle_alpha   90.00000000
_cell_angle_beta   90.00000000
_cell_angle_gamma   90.00000000
_symmetry_Int_Tables_number   1
_chemical_formula_structural   Mo
_chemical_formula_sum   Mo16
_cell_volume   193.18395599
_cell_formula_units_Z   16
loop_
 _symmetry_equiv_pos_site_id
 _symmetry_equiv_pos_as_xyz
  1  'x, y, z'
loop_
 _atom_site_type_symbol
 _atom_site_label
 _atom_site_symmetry_multiplicity
 _atom_site_fract_x
 _atom_site_fract_y
 _atom_site_fract_z
 _atom_site_occupancy
  Mo  Mo0  1  -0.07087030  0.02658480  3.58400000  1
  Mo  Mo1  1  1.84661000  1.76831000  -0.00625542  1
  Mo  Mo2  1  1.84172000  7.22914000  1.76966000  1
  Mo  Mo3  1  -0.02658940  1.86933000  1.71395000  1
  Mo  Mo4  1  3.65899000  7.38741000  3.64749000  1
  Mo  Mo5  1  5.44440000  1.88390000  -0.03126450  1
  Mo  Mo6  1  5.48552000  -0.01156350  1.69820000  1
  Mo  Mo7  1  3.66329000  1.79585000  1.83115000  1
  Mo  Mo8  1  7.27739000  3.57675000  -0.01370300  1
  Mo  Mo9  1  1.75921000  5.48797000  3.66727000  1
  Mo  Mo10  1  1.89841000  3.62765000  1.89550000  1
  Mo  Mo11  1  7.23758000  5.45609000  1.87304000  1
  Mo  Mo12  1  3.59833000  3.61474000  0.08326250  1
  Mo  Mo13  1  5.55875000  5.38553000  -0.00431560  1
  Mo  Mo14  1  5.33710000  3.68704000  1.81888000  1
  Mo  Mo15  1  3.71417000  5.43927000  1.94343000  1
