# generated using pymatgen
data_Mo
_symmetry_space_group_name_H-M   'P 1'
_cell_length_a   7.28339199
_cell_length_b   7.28339199
_cell_length_c   3.64169598
_cell_angle_alpha   90.00000000
_cell_angle_beta   90.00000000
_cell_angle_gamma   90.00000000
_symmetry_Int_Tables_number   1
_chemical_formula_structural   Mo
_chemical_formula_sum   Mo16
_cell_volume   193.18395599
_cell_formula_units_Z   16
loop_
 _symmetry_equiv_pos_site_id
 _symmetry_equiv_pos_as_xyz
  1  'x, y, z'
loop_
 _atom_site_type_symbol
 _atom_site_label
 _atom_site_symmetry_multiplicity
 _atom_site_fract_x
 _atom_site_fract_y
 _atom_site_fract_z
 _atom_site_occupancy
  Mo  Mo0  1  -0.01411230  -0.00844026  3.60587000  1
  Mo  Mo1  1  1.84429000  1.82619000  0.01975240  1
  Mo  Mo2  1  1.86347000  7.28733000  1.80394000  1
  Mo  Mo3  1  -0.01268310  1.85971000  1.73594000  1
  Mo  Mo4  1  3.58593000  7.26687000  3.64662000  1
  Mo  Mo5  1  5.34448000  1.84406000  -0.04275950  1
  Mo  Mo6  1  5.54521000  0.00227334  1.77981000  1
  Mo  Mo7  1  3.58899000  1.90436000  1.78625000  1
  Mo  Mo8  1  7.19843000  3.65862000  -0.03357360  1
  Mo  Mo9  1  1.80082000  5.38176000  3.68045000  1
  Mo  Mo10  1  1.81741000  3.57872000  1.87589000  1
  Mo  Mo11  1  7.30668000  5.42773000  1.84745000  1
  Mo  Mo12  1  3.80251000  3.63761000  -0.02834200  1
  Mo  Mo13  1  5.46463000  5.56045000  0.02544000  1
  Mo  Mo14  1  5.42295000  3.58048000  1.84657000  1
  Mo  Mo15  1  3.66500000  5.41628000  1.92100000  1
