# generated using pymatgen
data_Mo
_symmetry_space_group_name_H-M   'P 1'
_cell_length_a   7.28339199
_cell_length_b   7.28339199
_cell_length_c   3.64169598
_cell_angle_alpha   90.00000000
_cell_angle_beta   90.00000000
_cell_angle_gamma   90.00000000
_symmetry_Int_Tables_number   1
_chemical_formula_structural   Mo
_chemical_formula_sum   Mo16
_cell_volume   193.18395599
_cell_formula_units_Z   16
loop_
 _symmetry_equiv_pos_site_id
 _symmetry_equiv_pos_as_xyz
  1  'x, y, z'
loop_
 _atom_site_type_symbol
 _atom_site_label
 _atom_site_symmetry_multiplicity
 _atom_site_fract_x
 _atom_site_fract_y
 _atom_site_fract_z
 _atom_site_occupancy
  Mo  Mo0  1  0.06446490  0.04521010  3.66409000  1
  Mo  Mo1  1  1.82894000  1.82695000  -0.03841010  1
  Mo  Mo2  1  1.86104000  7.18030000  1.84419000  1
  Mo  Mo3  1  -0.00333879  1.89458000  1.78339000  1
  Mo  Mo4  1  3.65122000  7.31107000  3.63855000  1
  Mo  Mo5  1  5.38283000  1.84897000  -0.01033350  1
  Mo  Mo6  1  5.45337000  0.01785230  1.77867000  1
  Mo  Mo7  1  3.66709000  1.80473000  1.82332000  1
  Mo  Mo8  1  7.25571000  3.54408000  -0.01389890  1
  Mo  Mo9  1  1.74949000  5.45412000  3.66513000  1
  Mo  Mo10  1  1.84574000  3.62567000  1.82516000  1
  Mo  Mo11  1  7.25279000  5.51605000  1.85843000  1
  Mo  Mo12  1  3.61271000  3.66016000  0.07378760  1
  Mo  Mo13  1  5.56883000  5.46627000  -0.03694430  1
  Mo  Mo14  1  5.33118000  3.64507000  1.73162000  1
  Mo  Mo15  1  3.70192000  5.38293000  1.88356000  1
