# generated using pymatgen
data_Mo
_symmetry_space_group_name_H-M   'P 1'
_cell_length_a   7.28339199
_cell_length_b   7.28339199
_cell_length_c   3.64169598
_cell_angle_alpha   90.00000000
_cell_angle_beta   90.00000000
_cell_angle_gamma   90.00000000
_symmetry_Int_Tables_number   1
_chemical_formula_structural   Mo
_chemical_formula_sum   Mo16
_cell_volume   193.18395599
_cell_formula_units_Z   16
loop_
 _symmetry_equiv_pos_site_id
 _symmetry_equiv_pos_as_xyz
  1  'x, y, z'
loop_
 _atom_site_type_symbol
 _atom_site_label
 _atom_site_symmetry_multiplicity
 _atom_site_fract_x
 _atom_site_fract_y
 _atom_site_fract_z
 _atom_site_occupancy
  Mo  Mo0  1  0.06308520  -0.05275580  3.57330000  1
  Mo  Mo1  1  1.80628000  1.88601000  -0.00327713  1
  Mo  Mo2  1  1.79307000  7.25288000  1.84746000  1
  Mo  Mo3  1  0.00597985  1.84704000  1.87309000  1
  Mo  Mo4  1  3.70331000  7.34455000  3.60979000  1
  Mo  Mo5  1  5.50265000  1.77644000  -0.06395670  1
  Mo  Mo6  1  5.36242000  -0.01048230  1.80797000  1
  Mo  Mo7  1  3.67394000  1.87637000  1.79461000  1
  Mo  Mo8  1  7.19412000  3.61440000  0.00713850  1
  Mo  Mo9  1  1.84820000  5.50134000  3.74140000  1
  Mo  Mo10  1  1.77930000  3.60681000  1.80292000  1
  Mo  Mo11  1  7.26900000  5.49131000  1.84385000  1
  Mo  Mo12  1  3.64656000  3.50689000  0.06407100  1
  Mo  Mo13  1  5.45153000  5.46837000  0.00934108  1
  Mo  Mo14  1  5.43717000  3.73180000  1.70456000  1
  Mo  Mo15  1  3.68738000  5.38303000  1.85804000  1
