# generated using pymatgen
data_Mo
_symmetry_space_group_name_H-M   'P 1'
_cell_length_a   7.28339199
_cell_length_b   7.28339199
_cell_length_c   3.64169598
_cell_angle_alpha   90.00000000
_cell_angle_beta   90.00000000
_cell_angle_gamma   90.00000000
_symmetry_Int_Tables_number   1
_chemical_formula_structural   Mo
_chemical_formula_sum   Mo16
_cell_volume   193.18395599
_cell_formula_units_Z   16
loop_
 _symmetry_equiv_pos_site_id
 _symmetry_equiv_pos_as_xyz
  1  'x, y, z'
loop_
 _atom_site_type_symbol
 _atom_site_label
 _atom_site_symmetry_multiplicity
 _atom_site_fract_x
 _atom_site_fract_y
 _atom_site_fract_z
 _atom_site_occupancy
  Mo  Mo0  1  0.15661800  -0.00165977  3.53508000  1
  Mo  Mo1  1  1.78439000  1.90830000  0.03676370  1
  Mo  Mo2  1  1.72359000  7.33323000  1.79239000  1
  Mo  Mo3  1  -0.01828730  1.75371000  1.87104000  1
  Mo  Mo4  1  3.63918000  7.16687000  3.57200000  1
  Mo  Mo5  1  5.42283000  1.86094000  0.01177440  1
  Mo  Mo6  1  5.48718000  0.07082410  1.81158000  1
  Mo  Mo7  1  3.63361000  1.86147000  1.88980000  1
  Mo  Mo8  1  7.15898000  3.67542000  0.05713070  1
  Mo  Mo9  1  1.90248000  5.43169000  3.61790000  1
  Mo  Mo10  1  1.85653000  3.51288000  1.86734000  1
  Mo  Mo11  1  7.34098000  5.40912000  1.80469000  1
  Mo  Mo12  1  3.64483000  3.64998000  0.04742220  1
  Mo  Mo13  1  5.41614000  5.49270000  0.01273910  1
  Mo  Mo14  1  5.45431000  3.63389000  1.74453000  1
  Mo  Mo15  1  3.62066000  5.46462000  1.79813000  1
