# generated using pymatgen
data_Mo
_symmetry_space_group_name_H-M   'P 1'
_cell_length_a   7.27806742
_cell_length_b   7.27806742
_cell_length_c   3.63903379
_cell_angle_alpha   90.00000000
_cell_angle_beta   90.00000000
_cell_angle_gamma   90.00000000
_symmetry_Int_Tables_number   1
_chemical_formula_structural   Mo
_chemical_formula_sum   Mo16
_cell_volume   192.76058556
_cell_formula_units_Z   16
loop_
 _symmetry_equiv_pos_site_id
 _symmetry_equiv_pos_as_xyz
  1  'x, y, z'
loop_
 _atom_site_type_symbol
 _atom_site_label
 _atom_site_symmetry_multiplicity
 _atom_site_fract_x
 _atom_site_fract_y
 _atom_site_fract_z
 _atom_site_occupancy
  Mo  Mo0  1  -0.00796973  7.26671000  3.62413000  1
  Mo  Mo1  1  1.81069000  1.83031000  0.00443856  1
  Mo  Mo2  1  1.82892000  7.28314000  1.80570000  1
  Mo  Mo3  1  7.27079000  1.81765000  1.80910000  1
  Mo  Mo4  1  3.63735000  7.25267000  0.02069850  1
  Mo  Mo5  1  5.43644000  1.81526000  0.00279571  1
  Mo  Mo6  1  5.46738000  0.03741950  1.86587000  1
  Mo  Mo7  1  3.64810000  1.81164000  1.80822000  1
  Mo  Mo8  1  7.26285000  3.64590000  3.65361000  1
  Mo  Mo9  1  1.83132000  5.45628000  3.63564000  1
  Mo  Mo10  1  1.82719000  3.63811000  1.80576000  1
  Mo  Mo11  1  0.01392390  5.46998000  1.82801000  1
  Mo  Mo12  1  3.66298000  3.66053000  3.65872000  1
  Mo  Mo13  1  5.44610000  5.43220000  3.61568000  1
  Mo  Mo14  1  5.46576000  3.63813000  1.80369000  1
  Mo  Mo15  1  3.62218000  5.44613000  1.80896000  1
