# generated using pymatgen
data_Mo
_symmetry_space_group_name_H-M   'P 1'
_cell_length_a   7.28339199
_cell_length_b   7.28339199
_cell_length_c   3.64169598
_cell_angle_alpha   90.00000000
_cell_angle_beta   90.00000000
_cell_angle_gamma   90.00000000
_symmetry_Int_Tables_number   1
_chemical_formula_structural   Mo
_chemical_formula_sum   Mo16
_cell_volume   193.18395599
_cell_formula_units_Z   16
loop_
 _symmetry_equiv_pos_site_id
 _symmetry_equiv_pos_as_xyz
  1  'x, y, z'
loop_
 _atom_site_type_symbol
 _atom_site_label
 _atom_site_symmetry_multiplicity
 _atom_site_fract_x
 _atom_site_fract_y
 _atom_site_fract_z
 _atom_site_occupancy
  Mo  Mo0  1  -0.01544030  -0.02589430  3.58866000  1
  Mo  Mo1  1  1.76304000  1.77033000  0.04012930  1
  Mo  Mo2  1  1.83005000  7.33358000  1.87621000  1
  Mo  Mo3  1  -0.05674250  1.80635000  1.85039000  1
  Mo  Mo4  1  3.74526000  7.24779000  3.68650000  1
  Mo  Mo5  1  5.47983000  1.92388000  0.00767072  1
  Mo  Mo6  1  5.35665000  0.06485560  1.90207000  1
  Mo  Mo7  1  3.64943000  1.86655000  1.78913000  1
  Mo  Mo8  1  7.29997000  3.72302000  0.03837150  1
  Mo  Mo9  1  1.91776000  5.47736000  3.62338000  1
  Mo  Mo10  1  1.83495000  3.55640000  1.75300000  1
  Mo  Mo11  1  7.25829000  5.39236000  1.78513000  1
  Mo  Mo12  1  3.59409000  3.67149000  -0.01805170  1
  Mo  Mo13  1  5.43775000  5.43859000  0.00065379  1
  Mo  Mo14  1  5.52655000  3.57713000  1.75095000  1
  Mo  Mo15  1  3.60257000  5.40023000  1.79610000  1
