# generated using pymatgen
data_Mo
_symmetry_space_group_name_H-M   'P 1'
_cell_length_a   7.28339199
_cell_length_b   7.28339199
_cell_length_c   3.64169598
_cell_angle_alpha   90.00000000
_cell_angle_beta   90.00000000
_cell_angle_gamma   90.00000000
_symmetry_Int_Tables_number   1
_chemical_formula_structural   Mo
_chemical_formula_sum   Mo16
_cell_volume   193.18395599
_cell_formula_units_Z   16
loop_
 _symmetry_equiv_pos_site_id
 _symmetry_equiv_pos_as_xyz
  1  'x, y, z'
loop_
 _atom_site_type_symbol
 _atom_site_label
 _atom_site_symmetry_multiplicity
 _atom_site_fract_x
 _atom_site_fract_y
 _atom_site_fract_z
 _atom_site_occupancy
  Mo  Mo0  1  0.08485560  -0.00815828  3.50703000  1
  Mo  Mo1  1  1.74093000  1.75967000  -0.00730892  1
  Mo  Mo2  1  1.82033000  7.26645000  1.82929000  1
  Mo  Mo3  1  0.06222410  1.69994000  1.76590000  1
  Mo  Mo4  1  3.68377000  7.31130000  3.62268000  1
  Mo  Mo5  1  5.46734000  1.86855000  -0.01386770  1
  Mo  Mo6  1  5.42419000  0.05006240  1.81127000  1
  Mo  Mo7  1  3.53336000  1.84911000  1.77630000  1
  Mo  Mo8  1  7.23246000  3.66968000  -0.04417120  1
  Mo  Mo9  1  1.78097000  5.49761000  3.72196000  1
  Mo  Mo10  1  1.81675000  3.57346000  1.78738000  1
  Mo  Mo11  1  7.26849000  5.39105000  1.86925000  1
  Mo  Mo12  1  3.60024000  3.65484000  0.13676800  1
  Mo  Mo13  1  5.57029000  5.49545000  0.00288134  1
  Mo  Mo14  1  5.46329000  3.65130000  1.80738000  1
  Mo  Mo15  1  3.67450000  5.49367000  1.89757000  1
