# generated using pymatgen
data_Mo
_symmetry_space_group_name_H-M   'P 1'
_cell_length_a   7.28339199
_cell_length_b   7.28339199
_cell_length_c   3.64169598
_cell_angle_alpha   90.00000000
_cell_angle_beta   90.00000000
_cell_angle_gamma   90.00000000
_symmetry_Int_Tables_number   1
_chemical_formula_structural   Mo
_chemical_formula_sum   Mo16
_cell_volume   193.18395599
_cell_formula_units_Z   16
loop_
 _symmetry_equiv_pos_site_id
 _symmetry_equiv_pos_as_xyz
  1  'x, y, z'
loop_
 _atom_site_type_symbol
 _atom_site_label
 _atom_site_symmetry_multiplicity
 _atom_site_fract_x
 _atom_site_fract_y
 _atom_site_fract_z
 _atom_site_occupancy
  Mo  Mo0  1  -0.02348220  -0.04721200  3.65873000  1
  Mo  Mo1  1  1.78057000  1.83384000  0.01598520  1
  Mo  Mo2  1  1.83161000  7.31596000  1.87404000  1
  Mo  Mo3  1  -0.03228300  1.75602000  1.81820000  1
  Mo  Mo4  1  3.69697000  7.18741000  3.64060000  1
  Mo  Mo5  1  5.38843000  1.80540000  -0.07747220  1
  Mo  Mo6  1  5.35362000  0.06057730  1.84115000  1
  Mo  Mo7  1  3.66465000  1.86866000  1.87498000  1
  Mo  Mo8  1  7.31159000  3.70205000  0.02132150  1
  Mo  Mo9  1  1.78796000  5.54787000  3.66505000  1
  Mo  Mo10  1  1.84285000  3.62693000  1.73697000  1
  Mo  Mo11  1  7.30329000  5.44376000  1.83982000  1
  Mo  Mo12  1  3.50426000  3.62880000  -0.05371760  1
  Mo  Mo13  1  5.56348000  5.46820000  0.01200620  1
  Mo  Mo14  1  5.52362000  3.56041000  1.72597000  1
  Mo  Mo15  1  3.72686000  5.46534000  1.87666000  1
