# generated using pymatgen
data_Mo
_symmetry_space_group_name_H-M   'P 1'
_cell_length_a   7.28339199
_cell_length_b   7.28339199
_cell_length_c   3.64169598
_cell_angle_alpha   90.00000000
_cell_angle_beta   90.00000000
_cell_angle_gamma   90.00000000
_symmetry_Int_Tables_number   1
_chemical_formula_structural   Mo
_chemical_formula_sum   Mo16
_cell_volume   193.18395599
_cell_formula_units_Z   16
loop_
 _symmetry_equiv_pos_site_id
 _symmetry_equiv_pos_as_xyz
  1  'x, y, z'
loop_
 _atom_site_type_symbol
 _atom_site_label
 _atom_site_symmetry_multiplicity
 _atom_site_fract_x
 _atom_site_fract_y
 _atom_site_fract_z
 _atom_site_occupancy
  Mo  Mo0  1  0.02276490  -0.07897330  3.69960000  1
  Mo  Mo1  1  1.79600000  1.82898000  -0.01482610  1
  Mo  Mo2  1  1.78862000  7.19848000  1.80711000  1
  Mo  Mo3  1  0.03711570  1.84577000  1.92517000  1
  Mo  Mo4  1  3.63714000  7.38861000  3.60751000  1
  Mo  Mo5  1  5.52443000  1.83303000  0.09799970  1
  Mo  Mo6  1  5.41061000  -0.06275370  1.83094000  1
  Mo  Mo7  1  3.64386000  1.78114000  1.84937000  1
  Mo  Mo8  1  7.35745000  3.63088000  0.01491960  1
  Mo  Mo9  1  1.77800000  5.56530000  3.55628000  1
  Mo  Mo10  1  1.83716000  3.67277000  1.77029000  1
  Mo  Mo11  1  7.27763000  5.50831000  1.86834000  1
  Mo  Mo12  1  3.54165000  3.54842000  -0.03519110  1
  Mo  Mo13  1  5.49076000  5.36771000  -0.05586220  1
  Mo  Mo14  1  5.41018000  3.71661000  1.80627000  1
  Mo  Mo15  1  3.67063000  5.47971000  1.74239000  1
