# generated using pymatgen
data_Mo
_symmetry_space_group_name_H-M   'P 1'
_cell_length_a   7.28339199
_cell_length_b   7.28339199
_cell_length_c   3.64169598
_cell_angle_alpha   90.00000000
_cell_angle_beta   90.00000000
_cell_angle_gamma   90.00000000
_symmetry_Int_Tables_number   1
_chemical_formula_structural   Mo
_chemical_formula_sum   Mo16
_cell_volume   193.18395599
_cell_formula_units_Z   16
loop_
 _symmetry_equiv_pos_site_id
 _symmetry_equiv_pos_as_xyz
  1  'x, y, z'
loop_
 _atom_site_type_symbol
 _atom_site_label
 _atom_site_symmetry_multiplicity
 _atom_site_fract_x
 _atom_site_fract_y
 _atom_site_fract_z
 _atom_site_occupancy
  Mo  Mo0  1  -0.05073540  -0.01689520  3.72384000  1
  Mo  Mo1  1  1.77222000  1.84718000  -0.03048960  1
  Mo  Mo2  1  1.92972000  7.36885000  1.82022000  1
  Mo  Mo3  1  -0.02699720  1.79524000  1.74149000  1
  Mo  Mo4  1  3.62623000  7.25833000  3.59688000  1
  Mo  Mo5  1  5.51347000  1.81452000  -0.05245710  1
  Mo  Mo6  1  5.52935000  -0.05906210  1.78061000  1
  Mo  Mo7  1  3.64566000  1.81006000  1.73982000  1
  Mo  Mo8  1  7.24082000  3.76791000  -0.00307877  1
  Mo  Mo9  1  1.85275000  5.36729000  3.71115000  1
  Mo  Mo10  1  1.73357000  3.63380000  1.93545000  1
  Mo  Mo11  1  7.21407000  5.48910000  1.86841000  1
  Mo  Mo12  1  3.68819000  3.63799000  -0.04350570  1
  Mo  Mo13  1  5.37134000  5.48184000  -0.03336650  1
  Mo  Mo14  1  5.54625000  3.56471000  1.87565000  1
  Mo  Mo15  1  3.63809000  5.46313000  1.83970000  1
