# generated using pymatgen
data_Mo
_symmetry_space_group_name_H-M   'P 1'
_cell_length_a   7.28339199
_cell_length_b   7.28339199
_cell_length_c   3.64169598
_cell_angle_alpha   90.00000000
_cell_angle_beta   90.00000000
_cell_angle_gamma   90.00000000
_symmetry_Int_Tables_number   1
_chemical_formula_structural   Mo
_chemical_formula_sum   Mo16
_cell_volume   193.18395599
_cell_formula_units_Z   16
loop_
 _symmetry_equiv_pos_site_id
 _symmetry_equiv_pos_as_xyz
  1  'x, y, z'
loop_
 _atom_site_type_symbol
 _atom_site_label
 _atom_site_symmetry_multiplicity
 _atom_site_fract_x
 _atom_site_fract_y
 _atom_site_fract_z
 _atom_site_occupancy
  Mo  Mo0  1  0.00608048  -0.03863600  3.72752000  1
  Mo  Mo1  1  1.78550000  1.73223000  -0.13316200  1
  Mo  Mo2  1  1.85650000  7.22705000  1.77417000  1
  Mo  Mo3  1  0.02701250  1.82231000  1.80574000  1
  Mo  Mo4  1  3.60227000  7.34112000  3.54297000  1
  Mo  Mo5  1  5.48041000  1.81888000  -0.02002260  1
  Mo  Mo6  1  5.41078000  -0.00993192  1.80205000  1
  Mo  Mo7  1  3.62000000  1.79724000  1.78555000  1
  Mo  Mo8  1  7.28555000  3.60755000  0.05975610  1
  Mo  Mo9  1  1.82562000  5.49831000  3.66096000  1
  Mo  Mo10  1  1.76883000  3.69582000  1.83236000  1
  Mo  Mo11  1  7.29668000  5.51123000  1.88856000  1
  Mo  Mo12  1  3.57720000  3.62278000  -0.00334850  1
  Mo  Mo13  1  5.48755000  5.41665000  0.06456890  1
  Mo  Mo14  1  5.48110000  3.66810000  1.88813000  1
  Mo  Mo15  1  3.71291000  5.51329000  1.79450000  1
