# generated using pymatgen
data_Mo
_symmetry_space_group_name_H-M   'P 1'
_cell_length_a   7.28339199
_cell_length_b   7.28339199
_cell_length_c   3.64169598
_cell_angle_alpha   90.00000000
_cell_angle_beta   90.00000000
_cell_angle_gamma   90.00000000
_symmetry_Int_Tables_number   1
_chemical_formula_structural   Mo
_chemical_formula_sum   Mo16
_cell_volume   193.18395599
_cell_formula_units_Z   16
loop_
 _symmetry_equiv_pos_site_id
 _symmetry_equiv_pos_as_xyz
  1  'x, y, z'
loop_
 _atom_site_type_symbol
 _atom_site_label
 _atom_site_symmetry_multiplicity
 _atom_site_fract_x
 _atom_site_fract_y
 _atom_site_fract_z
 _atom_site_occupancy
  Mo  Mo0  1  0.04226810  0.04750470  3.63486000  1
  Mo  Mo1  1  1.90147000  1.79901000  0.04634660  1
  Mo  Mo2  1  1.84189000  7.29579000  1.81002000  1
  Mo  Mo3  1  0.00059812  1.72595000  1.80642000  1
  Mo  Mo4  1  3.64322000  7.20065000  3.66190000  1
  Mo  Mo5  1  5.34120000  1.85205000  -0.00870564  1
  Mo  Mo6  1  5.49912000  0.10369500  1.84304000  1
  Mo  Mo7  1  3.57616000  1.89688000  1.79956000  1
  Mo  Mo8  1  7.25881000  3.65709000  -0.06540790  1
  Mo  Mo9  1  1.82906000  5.37618000  3.68934000  1
  Mo  Mo10  1  1.78098000  3.63597000  1.87394000  1
  Mo  Mo11  1  7.35586000  5.44086000  1.72481000  1
  Mo  Mo12  1  3.65117000  3.65977000  -0.01334310  1
  Mo  Mo13  1  5.43046000  5.49093000  -0.01702610  1
  Mo  Mo14  1  5.45094000  3.56364000  1.84424000  1
  Mo  Mo15  1  3.62080000  5.47805000  1.84031000  1
