# generated using pymatgen
data_Mo
_symmetry_space_group_name_H-M   'P 1'
_cell_length_a   7.28339199
_cell_length_b   7.28339199
_cell_length_c   3.64169598
_cell_angle_alpha   90.00000000
_cell_angle_beta   90.00000000
_cell_angle_gamma   90.00000000
_symmetry_Int_Tables_number   1
_chemical_formula_structural   Mo
_chemical_formula_sum   Mo16
_cell_volume   193.18395599
_cell_formula_units_Z   16
loop_
 _symmetry_equiv_pos_site_id
 _symmetry_equiv_pos_as_xyz
  1  'x, y, z'
loop_
 _atom_site_type_symbol
 _atom_site_label
 _atom_site_symmetry_multiplicity
 _atom_site_fract_x
 _atom_site_fract_y
 _atom_site_fract_z
 _atom_site_occupancy
  Mo  Mo0  1  -0.04219540  -0.01973590  3.74799000  1
  Mo  Mo1  1  1.87062000  1.72567000  -0.03022670  1
  Mo  Mo2  1  1.80276000  7.24830000  1.78894000  1
  Mo  Mo3  1  -0.01735970  1.84222000  1.86891000  1
  Mo  Mo4  1  3.62120000  7.25331000  3.65555000  1
  Mo  Mo5  1  5.43895000  1.84093000  0.04017720  1
  Mo  Mo6  1  5.53317000  0.02398390  1.80618000  1
  Mo  Mo7  1  3.69230000  1.77360000  1.86483000  1
  Mo  Mo8  1  7.34517000  3.59752000  0.07653970  1
  Mo  Mo9  1  1.84312000  5.47744000  3.58973000  1
  Mo  Mo10  1  1.80137000  3.74579000  1.87452000  1
  Mo  Mo11  1  7.22665000  5.57523000  1.71037000  1
  Mo  Mo12  1  3.59044000  3.67498000  -0.08116750  1
  Mo  Mo13  1  5.36909000  5.39962000  -0.02502270  1
  Mo  Mo14  1  5.47391000  3.64542000  1.83799000  1
  Mo  Mo15  1  3.67481000  5.41973000  1.74499000  1
