# generated using pymatgen
data_Mo
_symmetry_space_group_name_H-M   'P 1'
_cell_length_a   7.27806742
_cell_length_b   7.27806742
_cell_length_c   3.63903379
_cell_angle_alpha   90.00000000
_cell_angle_beta   90.00000000
_cell_angle_gamma   90.00000000
_symmetry_Int_Tables_number   1
_chemical_formula_structural   Mo
_chemical_formula_sum   Mo16
_cell_volume   192.76058556
_cell_formula_units_Z   16
loop_
 _symmetry_equiv_pos_site_id
 _symmetry_equiv_pos_as_xyz
  1  'x, y, z'
loop_
 _atom_site_type_symbol
 _atom_site_label
 _atom_site_symmetry_multiplicity
 _atom_site_fract_x
 _atom_site_fract_y
 _atom_site_fract_z
 _atom_site_occupancy
  Mo  Mo0  1  -0.02284300  7.26691000  3.62978000  1
  Mo  Mo1  1  1.82243000  1.82314000  0.02442540  1
  Mo  Mo2  1  1.81429000  7.27929000  1.83620000  1
  Mo  Mo3  1  7.28280000  1.81730000  1.83030000  1
  Mo  Mo4  1  3.63827000  7.27949000  0.02388640  1
  Mo  Mo5  1  5.43228000  1.80980000  -0.00007689  1
  Mo  Mo6  1  5.46291000  0.01834050  1.84654000  1
  Mo  Mo7  1  3.63562000  1.81896000  1.80654000  1
  Mo  Mo8  1  7.27259000  3.63982000  3.63189000  1
  Mo  Mo9  1  1.82470000  5.45803000  3.61065000  1
  Mo  Mo10  1  1.83275000  3.64142000  1.76873000  1
  Mo  Mo11  1  0.01270740  5.45656000  1.81075000  1
  Mo  Mo12  1  3.66883000  3.64336000  3.67268000  1
  Mo  Mo13  1  5.44428000  5.43914000  3.62514000  1
  Mo  Mo14  1  5.47713000  3.66218000  1.82809000  1
  Mo  Mo15  1  3.62526000  5.44834000  1.80550000  1
