# generated using pymatgen
data_Mo
_symmetry_space_group_name_H-M   'P 1'
_cell_length_a   7.28339199
_cell_length_b   7.28339199
_cell_length_c   3.64169598
_cell_angle_alpha   90.00000000
_cell_angle_beta   90.00000000
_cell_angle_gamma   90.00000000
_symmetry_Int_Tables_number   1
_chemical_formula_structural   Mo
_chemical_formula_sum   Mo16
_cell_volume   193.18395599
_cell_formula_units_Z   16
loop_
 _symmetry_equiv_pos_site_id
 _symmetry_equiv_pos_as_xyz
  1  'x, y, z'
loop_
 _atom_site_type_symbol
 _atom_site_label
 _atom_site_symmetry_multiplicity
 _atom_site_fract_x
 _atom_site_fract_y
 _atom_site_fract_z
 _atom_site_occupancy
  Mo  Mo0  1  -0.02767050  0.01998150  3.65636000  1
  Mo  Mo1  1  1.82315000  1.83432000  0.00406593  1
  Mo  Mo2  1  1.85713000  7.18016000  1.79910000  1
  Mo  Mo3  1  -0.06165320  1.83309000  1.71719000  1
  Mo  Mo4  1  3.60342000  7.36366000  3.65515000  1
  Mo  Mo5  1  5.46542000  1.74562000  -0.01979900  1
  Mo  Mo6  1  5.51383000  -0.01882320  1.71559000  1
  Mo  Mo7  1  3.64788000  1.80652000  1.86281000  1
  Mo  Mo8  1  7.26939000  3.61105000  -0.08432930  1
  Mo  Mo9  1  1.87132000  5.35159000  3.70894000  1
  Mo  Mo10  1  1.74634000  3.64443000  1.87561000  1
  Mo  Mo11  1  7.36806000  5.51117000  1.77396000  1
  Mo  Mo12  1  3.73424000  3.62814000  0.04067820  1
  Mo  Mo13  1  5.40135000  5.54770000  -0.00781845  1
  Mo  Mo14  1  5.39147000  3.71234000  1.87371000  1
  Mo  Mo15  1  3.62032000  5.45307000  1.89907000  1
