# generated using pymatgen
data_Mo
_symmetry_space_group_name_H-M   'P 1'
_cell_length_a   7.28339199
_cell_length_b   7.28339199
_cell_length_c   3.64169598
_cell_angle_alpha   90.00000000
_cell_angle_beta   90.00000000
_cell_angle_gamma   90.00000000
_symmetry_Int_Tables_number   1
_chemical_formula_structural   Mo
_chemical_formula_sum   Mo16
_cell_volume   193.18395599
_cell_formula_units_Z   16
loop_
 _symmetry_equiv_pos_site_id
 _symmetry_equiv_pos_as_xyz
  1  'x, y, z'
loop_
 _atom_site_type_symbol
 _atom_site_label
 _atom_site_symmetry_multiplicity
 _atom_site_fract_x
 _atom_site_fract_y
 _atom_site_fract_z
 _atom_site_occupancy
  Mo  Mo0  1  0.07908400  0.00405891  3.52894000  1
  Mo  Mo1  1  1.80115000  1.77924000  -0.06401250  1
  Mo  Mo2  1  1.82891000  7.33022000  1.88129000  1
  Mo  Mo3  1  -0.02801610  1.80782000  1.81433000  1
  Mo  Mo4  1  3.74428000  7.20230000  3.67001000  1
  Mo  Mo5  1  5.47232000  1.81058000  -0.08816190  1
  Mo  Mo6  1  5.35230000  -0.01759210  1.86457000  1
  Mo  Mo7  1  3.69285000  1.80111000  1.80527000  1
  Mo  Mo8  1  7.26625000  3.70019000  0.01794970  1
  Mo  Mo9  1  1.81798000  5.53921000  3.68103000  1
  Mo  Mo10  1  1.76912000  3.60200000  1.79689000  1
  Mo  Mo11  1  7.25384000  5.46877000  1.80845000  1
  Mo  Mo12  1  3.56048000  3.66485000  0.05826840  1
  Mo  Mo13  1  5.49829000  5.47742000  0.04035830  1
  Mo  Mo14  1  5.52836000  3.61429000  1.79371000  1
  Mo  Mo15  1  3.58680000  5.43952000  1.86140000  1
