# generated using pymatgen
data_Mo
_symmetry_space_group_name_H-M   'P 1'
_cell_length_a   7.28339199
_cell_length_b   7.28339199
_cell_length_c   3.64169598
_cell_angle_alpha   90.00000000
_cell_angle_beta   90.00000000
_cell_angle_gamma   90.00000000
_symmetry_Int_Tables_number   1
_chemical_formula_structural   Mo
_chemical_formula_sum   Mo16
_cell_volume   193.18395599
_cell_formula_units_Z   16
loop_
 _symmetry_equiv_pos_site_id
 _symmetry_equiv_pos_as_xyz
  1  'x, y, z'
loop_
 _atom_site_type_symbol
 _atom_site_label
 _atom_site_symmetry_multiplicity
 _atom_site_fract_x
 _atom_site_fract_y
 _atom_site_fract_z
 _atom_site_occupancy
  Mo  Mo0  1  -0.07041110  0.04121200  3.71930000  1
  Mo  Mo1  1  1.85926000  1.73663000  -0.00190277  1
  Mo  Mo2  1  1.90145000  7.24546000  1.88821000  1
  Mo  Mo3  1  -0.00420840  1.85652000  1.80031000  1
  Mo  Mo4  1  3.66959000  7.33486000  3.65182000  1
  Mo  Mo5  1  5.42566000  1.84347000  0.02161880  1
  Mo  Mo6  1  5.46573000  -0.04321540  1.78974000  1
  Mo  Mo7  1  3.54706000  1.75236000  1.75504000  1
  Mo  Mo8  1  7.31903000  3.59492000  -0.08877330  1
  Mo  Mo9  1  1.85053000  5.46929000  3.63754000  1
  Mo  Mo10  1  1.70567000  3.68925000  1.83786000  1
  Mo  Mo11  1  7.28483000  5.53090000  1.81944000  1
  Mo  Mo12  1  3.71089000  3.66081000  0.02242340  1
  Mo  Mo13  1  5.45116000  5.41036000  -0.03306260  1
  Mo  Mo14  1  5.47579000  3.67244000  1.87815000  1
  Mo  Mo15  1  3.63196000  5.42874000  1.77258000  1
