# generated using pymatgen
data_Mo
_symmetry_space_group_name_H-M   'P 1'
_cell_length_a   7.28339199
_cell_length_b   7.28339199
_cell_length_c   3.64169598
_cell_angle_alpha   90.00000000
_cell_angle_beta   90.00000000
_cell_angle_gamma   90.00000000
_symmetry_Int_Tables_number   1
_chemical_formula_structural   Mo
_chemical_formula_sum   Mo16
_cell_volume   193.18395599
_cell_formula_units_Z   16
loop_
 _symmetry_equiv_pos_site_id
 _symmetry_equiv_pos_as_xyz
  1  'x, y, z'
loop_
 _atom_site_type_symbol
 _atom_site_label
 _atom_site_symmetry_multiplicity
 _atom_site_fract_x
 _atom_site_fract_y
 _atom_site_fract_z
 _atom_site_occupancy
  Mo  Mo0  1  -0.11155100  -0.02379460  3.68022000  1
  Mo  Mo1  1  1.82844000  1.74504000  -0.03111120  1
  Mo  Mo2  1  1.94343000  7.23969000  1.74604000  1
  Mo  Mo3  1  -0.05523960  1.83067000  1.75027000  1
  Mo  Mo4  1  3.63066000  7.33911000  3.66244000  1
  Mo  Mo5  1  5.43624000  1.91218000  -0.01694760  1
  Mo  Mo6  1  5.50614000  -0.05036470  1.77175000  1
  Mo  Mo7  1  3.61155000  1.82579000  1.75213000  1
  Mo  Mo8  1  7.28052000  3.61928000  0.02031140  1
  Mo  Mo9  1  1.81765000  5.47136000  3.66109000  1
  Mo  Mo10  1  1.73673000  3.61690000  1.84620000  1
  Mo  Mo11  1  7.33165000  5.52582000  1.87048000  1
  Mo  Mo12  1  3.64196000  3.55879000  -0.08022920  1
  Mo  Mo13  1  5.48479000  5.39358000  0.09238390  1
  Mo  Mo14  1  5.46493000  3.75562000  1.85473000  1
  Mo  Mo15  1  3.67611000  5.46435000  1.89055000  1
