# generated using pymatgen
data_Mo
_symmetry_space_group_name_H-M   'P 1'
_cell_length_a   7.28339199
_cell_length_b   7.28339199
_cell_length_c   3.64169598
_cell_angle_alpha   90.00000000
_cell_angle_beta   90.00000000
_cell_angle_gamma   90.00000000
_symmetry_Int_Tables_number   1
_chemical_formula_structural   Mo
_chemical_formula_sum   Mo16
_cell_volume   193.18395599
_cell_formula_units_Z   16
loop_
 _symmetry_equiv_pos_site_id
 _symmetry_equiv_pos_as_xyz
  1  'x, y, z'
loop_
 _atom_site_type_symbol
 _atom_site_label
 _atom_site_symmetry_multiplicity
 _atom_site_fract_x
 _atom_site_fract_y
 _atom_site_fract_z
 _atom_site_occupancy
  Mo  Mo0  1  -0.08163380  -0.00508483  3.68609000  1
  Mo  Mo1  1  1.83148000  1.79152000  0.02892160  1
  Mo  Mo2  1  1.85923000  7.25774000  1.83720000  1
  Mo  Mo3  1  0.04665340  1.87077000  1.83096000  1
  Mo  Mo4  1  3.59214000  7.39535000  3.69702000  1
  Mo  Mo5  1  5.50403000  1.84114000  0.02825810  1
  Mo  Mo6  1  5.41878000  -0.05823590  1.77077000  1
  Mo  Mo7  1  3.67774000  1.79820000  1.91547000  1
  Mo  Mo8  1  7.33334000  3.58701000  -0.06808080  1
  Mo  Mo9  1  1.77586000  5.50271000  3.60097000  1
  Mo  Mo10  1  1.77496000  3.69198000  1.84288000  1
  Mo  Mo11  1  7.28704000  5.49136000  1.74757000  1
  Mo  Mo12  1  3.65441000  3.53188000  -0.03413130  1
  Mo  Mo13  1  5.39669000  5.34567000  -0.05476810  1
  Mo  Mo14  1  5.48319000  3.70252000  1.81839000  1
  Mo  Mo15  1  3.67010000  5.47946000  1.82277000  1
