# generated using pymatgen
data_Mo
_symmetry_space_group_name_H-M   'P 1'
_cell_length_a   7.28339199
_cell_length_b   7.28339199
_cell_length_c   3.64169598
_cell_angle_alpha   90.00000000
_cell_angle_beta   90.00000000
_cell_angle_gamma   90.00000000
_symmetry_Int_Tables_number   1
_chemical_formula_structural   Mo
_chemical_formula_sum   Mo16
_cell_volume   193.18395599
_cell_formula_units_Z   16
loop_
 _symmetry_equiv_pos_site_id
 _symmetry_equiv_pos_as_xyz
  1  'x, y, z'
loop_
 _atom_site_type_symbol
 _atom_site_label
 _atom_site_symmetry_multiplicity
 _atom_site_fract_x
 _atom_site_fract_y
 _atom_site_fract_z
 _atom_site_occupancy
  Mo  Mo0  1  -0.06971010  0.00500611  3.77176000  1
  Mo  Mo1  1  1.86208000  1.91266000  -0.01974560  1
  Mo  Mo2  1  1.82522000  7.27131000  1.82472000  1
  Mo  Mo3  1  0.02781210  1.90838000  1.82371000  1
  Mo  Mo4  1  3.58452000  7.34082000  3.62644000  1
  Mo  Mo5  1  5.48081000  1.73261000  0.01182280  1
  Mo  Mo6  1  5.45055000  -0.05432450  1.79581000  1
  Mo  Mo7  1  3.66092000  1.84001000  1.83689000  1
  Mo  Mo8  1  7.32278000  3.58580000  -0.01528240  1
  Mo  Mo9  1  1.83803000  5.40286000  3.62951000  1
  Mo  Mo10  1  1.74503000  3.70283000  1.82300000  1
  Mo  Mo11  1  7.28268000  5.50715000  1.81730000  1
  Mo  Mo12  1  3.73091000  3.60775000  -0.09503990  1
  Mo  Mo13  1  5.36834000  5.43459000  -0.00995528  1
  Mo  Mo14  1  5.46516000  3.60300000  1.86257000  1
  Mo  Mo15  1  3.64888000  5.42355000  1.78677000  1
