# generated using pymatgen
data_Mo
_symmetry_space_group_name_H-M   'P 1'
_cell_length_a   7.28339199
_cell_length_b   7.28339199
_cell_length_c   3.64169598
_cell_angle_alpha   90.00000000
_cell_angle_beta   90.00000000
_cell_angle_gamma   90.00000000
_symmetry_Int_Tables_number   1
_chemical_formula_structural   Mo
_chemical_formula_sum   Mo16
_cell_volume   193.18395599
_cell_formula_units_Z   16
loop_
 _symmetry_equiv_pos_site_id
 _symmetry_equiv_pos_as_xyz
  1  'x, y, z'
loop_
 _atom_site_type_symbol
 _atom_site_label
 _atom_site_symmetry_multiplicity
 _atom_site_fract_x
 _atom_site_fract_y
 _atom_site_fract_z
 _atom_site_occupancy
  Mo  Mo0  1  0.14270700  -0.08740880  3.54918000  1
  Mo  Mo1  1  1.75663000  1.82284000  -0.08518720  1
  Mo  Mo2  1  1.84893000  7.37602000  1.82925000  1
  Mo  Mo3  1  -0.04721690  1.75049000  1.76544000  1
  Mo  Mo4  1  3.63846000  7.23629000  3.65019000  1
  Mo  Mo5  1  5.43201000  1.78488000  -0.03161520  1
  Mo  Mo6  1  5.38596000  0.04903410  1.86558000  1
  Mo  Mo7  1  3.66329000  1.81434000  1.79867000  1
  Mo  Mo8  1  7.19047000  3.66690000  0.02282170  1
  Mo  Mo9  1  1.82672000  5.41190000  3.65377000  1
  Mo  Mo10  1  1.82508000  3.52364000  1.81139000  1
  Mo  Mo11  1  7.28766000  5.44996000  1.81917000  1
  Mo  Mo12  1  3.59339000  3.65932000  0.08898830  1
  Mo  Mo13  1  5.51916000  5.59898000  0.04659300  1
  Mo  Mo14  1  5.50349000  3.64736000  1.79636000  1
  Mo  Mo15  1  3.65726000  5.51945000  1.88971000  1
