# generated using pymatgen
data_Mo
_symmetry_space_group_name_H-M   'P 1'
_cell_length_a   7.28339199
_cell_length_b   7.28339199
_cell_length_c   3.64169598
_cell_angle_alpha   90.00000000
_cell_angle_beta   90.00000000
_cell_angle_gamma   90.00000000
_symmetry_Int_Tables_number   1
_chemical_formula_structural   Mo
_chemical_formula_sum   Mo16
_cell_volume   193.18395599
_cell_formula_units_Z   16
loop_
 _symmetry_equiv_pos_site_id
 _symmetry_equiv_pos_as_xyz
  1  'x, y, z'
loop_
 _atom_site_type_symbol
 _atom_site_label
 _atom_site_symmetry_multiplicity
 _atom_site_fract_x
 _atom_site_fract_y
 _atom_site_fract_z
 _atom_site_occupancy
  Mo  Mo0  1  0.07110160  -0.04508830  3.51980000  1
  Mo  Mo1  1  1.79041000  1.85813000  0.03224340  1
  Mo  Mo2  1  1.83018000  7.29985000  1.86324000  1
  Mo  Mo3  1  -0.06784080  1.77421000  1.82408000  1
  Mo  Mo4  1  3.64587000  7.17906000  3.63046000  1
  Mo  Mo5  1  5.46465000  1.83612000  -0.00903460  1
  Mo  Mo6  1  5.38222000  0.04239310  1.82214000  1
  Mo  Mo7  1  3.71123000  1.85969000  1.87044000  1
  Mo  Mo8  1  7.20551000  3.72258000  0.02641270  1
  Mo  Mo9  1  1.85649000  5.41441000  3.61604000  1
  Mo  Mo10  1  1.92041000  3.62009000  1.82841000  1
  Mo  Mo11  1  7.26501000  5.46921000  1.81437000  1
  Mo  Mo12  1  3.62196000  3.62405000  0.09289910  1
  Mo  Mo13  1  5.44152000  5.53189000  -0.03637170  1
  Mo  Mo14  1  5.47865000  3.63542000  1.78345000  1
  Mo  Mo15  1  3.60662000  5.40198000  1.79173000  1
