# generated using pymatgen
data_Mo
_symmetry_space_group_name_H-M   'P 1'
_cell_length_a   7.28339199
_cell_length_b   7.28339199
_cell_length_c   3.64169598
_cell_angle_alpha   90.00000000
_cell_angle_beta   90.00000000
_cell_angle_gamma   90.00000000
_symmetry_Int_Tables_number   1
_chemical_formula_structural   Mo
_chemical_formula_sum   Mo16
_cell_volume   193.18395599
_cell_formula_units_Z   16
loop_
 _symmetry_equiv_pos_site_id
 _symmetry_equiv_pos_as_xyz
  1  'x, y, z'
loop_
 _atom_site_type_symbol
 _atom_site_label
 _atom_site_symmetry_multiplicity
 _atom_site_fract_x
 _atom_site_fract_y
 _atom_site_fract_z
 _atom_site_occupancy
  Mo  Mo0  1  -0.06606940  0.10881300  3.58557000  1
  Mo  Mo1  1  1.83264000  1.84409000  0.08444040  1
  Mo  Mo2  1  1.83127000  7.20595000  1.82772000  1
  Mo  Mo3  1  -0.02688690  1.78910000  1.78446000  1
  Mo  Mo4  1  3.70356000  7.25743000  3.69135000  1
  Mo  Mo5  1  5.39516000  1.86641000  -0.00281116  1
  Mo  Mo6  1  5.48199000  0.07814250  1.79488000  1
  Mo  Mo7  1  3.62152000  1.86438000  1.83204000  1
  Mo  Mo8  1  7.31991000  3.58659000  -0.10219000  1
  Mo  Mo9  1  1.82587000  5.39394000  3.67662000  1
  Mo  Mo10  1  1.82024000  3.65666000  1.83004000  1
  Mo  Mo11  1  7.28638000  5.42514000  1.80530000  1
  Mo  Mo12  1  3.71152000  3.66609000  0.02519890  1
  Mo  Mo13  1  5.41810000  5.47531000  -0.04673190  1
  Mo  Mo14  1  5.43412000  3.63878000  1.80703000  1
  Mo  Mo15  1  3.63468000  5.36717000  1.87739000  1
