# generated using pymatgen
data_Mo
_symmetry_space_group_name_H-M   'P 1'
_cell_length_a   7.28339199
_cell_length_b   7.28339199
_cell_length_c   3.64169598
_cell_angle_alpha   90.00000000
_cell_angle_beta   90.00000000
_cell_angle_gamma   90.00000000
_symmetry_Int_Tables_number   1
_chemical_formula_structural   Mo
_chemical_formula_sum   Mo16
_cell_volume   193.18395599
_cell_formula_units_Z   16
loop_
 _symmetry_equiv_pos_site_id
 _symmetry_equiv_pos_as_xyz
  1  'x, y, z'
loop_
 _atom_site_type_symbol
 _atom_site_label
 _atom_site_symmetry_multiplicity
 _atom_site_fract_x
 _atom_site_fract_y
 _atom_site_fract_z
 _atom_site_occupancy
  Mo  Mo0  1  -0.03644940  -0.06613600  3.74435000  1
  Mo  Mo1  1  1.80321000  1.70435000  0.01674220  1
  Mo  Mo2  1  1.79166000  7.37210000  1.83590000  1
  Mo  Mo3  1  0.06062660  1.76407000  1.85487000  1
  Mo  Mo4  1  3.63845000  7.25932000  3.62845000  1
  Mo  Mo5  1  5.47667000  1.82294000  0.06377950  1
  Mo  Mo6  1  5.57213000  -0.03695020  1.87593000  1
  Mo  Mo7  1  3.59453000  1.84332000  1.79072000  1
  Mo  Mo8  1  7.32767000  3.77041000  -0.00656139  1
  Mo  Mo9  1  1.80517000  5.55937000  3.64357000  1
  Mo  Mo10  1  1.81169000  3.67252000  1.76910000  1
  Mo  Mo11  1  7.28904000  5.45767000  1.77708000  1
  Mo  Mo12  1  3.64204000  3.65246000  -0.07921540  1
  Mo  Mo13  1  5.40223000  5.45662000  -0.00968984  1
  Mo  Mo14  1  5.48900000  3.53106000  1.82407000  1
  Mo  Mo15  1  3.55635000  5.46087000  1.74121000  1
