# generated using pymatgen
data_Mo
_symmetry_space_group_name_H-M   'P 1'
_cell_length_a   7.27808089
_cell_length_b   7.27808089
_cell_length_c   3.63904047
_cell_angle_alpha   90.00000000
_cell_angle_beta   90.00000000
_cell_angle_gamma   90.00000000
_symmetry_Int_Tables_number   1
_chemical_formula_structural   Mo
_chemical_formula_sum   Mo16
_cell_volume   192.76165285
_cell_formula_units_Z   16
loop_
 _symmetry_equiv_pos_site_id
 _symmetry_equiv_pos_as_xyz
  1  'x, y, z'
loop_
 _atom_site_type_symbol
 _atom_site_label
 _atom_site_symmetry_multiplicity
 _atom_site_fract_x
 _atom_site_fract_y
 _atom_site_fract_z
 _atom_site_occupancy
  Mo  Mo0  1  -0.00656763  7.27424000  0.01417670  1
  Mo  Mo1  1  1.81725000  1.82193000  -0.00117436  1
  Mo  Mo2  1  1.80725000  7.28006000  1.80799000  1
  Mo  Mo3  1  7.28540000  1.81334000  1.83000000  1
  Mo  Mo4  1  3.64893000  7.27919000  3.64120000  1
  Mo  Mo5  1  5.46417000  1.83184000  0.00291384  1
  Mo  Mo6  1  5.44361000  0.01113130  1.82664000  1
  Mo  Mo7  1  3.64441000  1.81309000  1.82388000  1
  Mo  Mo8  1  7.26253000  3.63778000  3.63584000  1
  Mo  Mo9  1  1.81519000  5.46628000  3.63809000  1
  Mo  Mo10  1  1.83156000  3.63155000  1.82688000  1
  Mo  Mo11  1  7.27671000  5.45076000  1.82567000  1
  Mo  Mo12  1  3.63479000  3.62540000  -0.00885404  1
  Mo  Mo13  1  5.46958000  5.47126000  3.62831000  1
  Mo  Mo14  1  5.46436000  3.63892000  1.81625000  1
  Mo  Mo15  1  3.64291000  5.45530000  1.80417000  1
