# generated using pymatgen
data_Mo
_symmetry_space_group_name_H-M   'P 1'
_cell_length_a   7.27806742
_cell_length_b   7.27806742
_cell_length_c   3.63903379
_cell_angle_alpha   90.00000000
_cell_angle_beta   90.00000000
_cell_angle_gamma   90.00000000
_symmetry_Int_Tables_number   1
_chemical_formula_structural   Mo
_chemical_formula_sum   Mo16
_cell_volume   192.76058556
_cell_formula_units_Z   16
loop_
 _symmetry_equiv_pos_site_id
 _symmetry_equiv_pos_as_xyz
  1  'x, y, z'
loop_
 _atom_site_type_symbol
 _atom_site_label
 _atom_site_symmetry_multiplicity
 _atom_site_fract_x
 _atom_site_fract_y
 _atom_site_fract_z
 _atom_site_occupancy
  Mo  Mo0  1  0.00894205  7.28107000  3.61790000  1
  Mo  Mo1  1  1.80635000  1.83072000  0.01634300  1
  Mo  Mo2  1  1.84728000  7.27034000  1.81775000  1
  Mo  Mo3  1  7.25452000  1.82748000  1.83671000  1
  Mo  Mo4  1  3.62672000  7.25062000  -0.00542415  1
  Mo  Mo5  1  5.45906000  1.81224000  -0.03923520  1
  Mo  Mo6  1  5.44697000  0.02159060  1.82347000  1
  Mo  Mo7  1  3.63997000  1.81773000  1.78367000  1
  Mo  Mo8  1  7.27743000  3.63577000  3.65691000  1
  Mo  Mo9  1  1.80129000  5.45819000  3.63721000  1
  Mo  Mo10  1  1.83923000  3.63819000  1.80471000  1
  Mo  Mo11  1  0.00426428  5.46464000  1.84878000  1
  Mo  Mo12  1  3.64325000  3.64989000  3.66896000  1
  Mo  Mo13  1  5.45244000  5.45688000  3.63849000  1
  Mo  Mo14  1  5.46396000  3.63696000  1.83064000  1
  Mo  Mo15  1  3.65232000  5.44976000  1.81415000  1
