# generated using pymatgen
data_Mo
_symmetry_space_group_name_H-M   'P 1'
_cell_length_a   7.28339199
_cell_length_b   7.28339199
_cell_length_c   3.64169598
_cell_angle_alpha   90.00000000
_cell_angle_beta   90.00000000
_cell_angle_gamma   90.00000000
_symmetry_Int_Tables_number   1
_chemical_formula_structural   Mo
_chemical_formula_sum   Mo16
_cell_volume   193.18395599
_cell_formula_units_Z   16
loop_
 _symmetry_equiv_pos_site_id
 _symmetry_equiv_pos_as_xyz
  1  'x, y, z'
loop_
 _atom_site_type_symbol
 _atom_site_label
 _atom_site_symmetry_multiplicity
 _atom_site_fract_x
 _atom_site_fract_y
 _atom_site_fract_z
 _atom_site_occupancy
  Mo  Mo0  1  -0.07272170  0.00771670  3.65804000  1
  Mo  Mo1  1  1.79182000  1.77899000  0.01182960  1
  Mo  Mo2  1  1.81344000  7.24618000  1.77495000  1
  Mo  Mo3  1  0.05971920  1.75936000  1.82486000  1
  Mo  Mo4  1  3.64958000  7.34545000  3.68880000  1
  Mo  Mo5  1  5.56231000  1.72635000  0.00013124  1
  Mo  Mo6  1  5.47993000  -0.04487870  1.77640000  1
  Mo  Mo7  1  3.66765000  1.81636000  1.86995000  1
  Mo  Mo8  1  7.37179000  3.61335000  0.01988520  1
  Mo  Mo9  1  1.79212000  5.53162000  3.60091000  1
  Mo  Mo10  1  1.76683000  3.76269000  1.86895000  1
  Mo  Mo11  1  7.29413000  5.58176000  1.74330000  1
  Mo  Mo12  1  3.55782000  3.61584000  -0.03860530  1
  Mo  Mo13  1  5.39707000  5.37212000  0.00952900  1
  Mo  Mo14  1  5.43459000  3.67296000  1.84297000  1
  Mo  Mo15  1  3.65793000  5.43813000  1.81840000  1
