# generated using pymatgen
data_Mo
_symmetry_space_group_name_H-M   'P 1'
_cell_length_a   7.28336437
_cell_length_b   7.28336437
_cell_length_c   3.64168215
_cell_angle_alpha   90.00000000
_cell_angle_beta   90.00000000
_cell_angle_gamma   90.00000000
_symmetry_Int_Tables_number   1
_chemical_formula_structural   Mo
_chemical_formula_sum   Mo16
_cell_volume   193.18175713
_cell_formula_units_Z   16
loop_
 _symmetry_equiv_pos_site_id
 _symmetry_equiv_pos_as_xyz
  1  'x, y, z'
loop_
 _atom_site_type_symbol
 _atom_site_label
 _atom_site_symmetry_multiplicity
 _atom_site_fract_x
 _atom_site_fract_y
 _atom_site_fract_z
 _atom_site_occupancy
  Mo  Mo0  1  -0.03216730  -0.07773790  0.04745660  1
  Mo  Mo1  1  1.85552000  1.85511000  -0.00649352  1
  Mo  Mo2  1  1.76650000  7.26010000  1.87578000  1
  Mo  Mo3  1  -0.00103927  1.85612000  1.78818000  1
  Mo  Mo4  1  3.54589000  -0.06944350  -0.03087600  1
  Mo  Mo5  1  5.49150000  1.82845000  3.66585000  1
  Mo  Mo6  1  5.37292000  7.37128000  1.74719000  1
  Mo  Mo7  1  3.66823000  1.78739000  1.76688000  1
  Mo  Mo8  1  7.35549000  3.57927000  -0.03137620  1
  Mo  Mo9  1  1.77532000  5.44926000  3.68638000  1
  Mo  Mo10  1  1.82240000  3.66773000  1.88112000  1
  Mo  Mo11  1  -0.03524030  5.42704000  1.89579000  1
  Mo  Mo12  1  3.69796000  3.71145000  3.55196000  1
  Mo  Mo13  1  5.53562000  5.48297000  3.67348000  1
  Mo  Mo14  1  5.43026000  3.67957000  1.75621000  1
  Mo  Mo15  1  3.69147000  5.41544000  1.84446000  1
