# generated using pymatgen
data_Mo
_symmetry_space_group_name_H-M   'P 1'
_cell_length_a   7.28336437
_cell_length_b   7.28336437
_cell_length_c   3.64168215
_cell_angle_alpha   90.00000000
_cell_angle_beta   90.00000000
_cell_angle_gamma   90.00000000
_symmetry_Int_Tables_number   1
_chemical_formula_structural   Mo
_chemical_formula_sum   Mo16
_cell_volume   193.18175713
_cell_formula_units_Z   16
loop_
 _symmetry_equiv_pos_site_id
 _symmetry_equiv_pos_as_xyz
  1  'x, y, z'
loop_
 _atom_site_type_symbol
 _atom_site_label
 _atom_site_symmetry_multiplicity
 _atom_site_fract_x
 _atom_site_fract_y
 _atom_site_fract_z
 _atom_site_occupancy
  Mo  Mo0  1  0.09906810  -0.02403290  -0.08615910  1
  Mo  Mo1  1  1.79728000  1.83580000  0.06369820  1
  Mo  Mo2  1  1.78802000  7.31934000  1.79824000  1
  Mo  Mo3  1  -0.01576640  1.74809000  1.82162000  1
  Mo  Mo4  1  3.61129000  0.02398970  -0.03038070  1
  Mo  Mo5  1  5.53703000  1.77725000  3.59774000  1
  Mo  Mo6  1  5.39601000  7.20595000  1.85616000  1
  Mo  Mo7  1  3.68999000  1.87051000  1.89820000  1
  Mo  Mo8  1  7.34615000  3.75851000  -0.00495066  1
  Mo  Mo9  1  1.86056000  5.48451000  3.59197000  1
  Mo  Mo10  1  1.85702000  3.62867000  1.78953000  1
  Mo  Mo11  1  -0.10657400  5.54628000  1.78525000  1
  Mo  Mo12  1  3.65571000  3.50972000  3.76065000  1
  Mo  Mo13  1  5.31581000  5.42526000  3.58301000  1
  Mo  Mo14  1  5.46334000  3.60575000  1.88098000  1
  Mo  Mo15  1  3.64571000  5.50842000  1.80644000  1
