# generated using pymatgen
data_Mo
_symmetry_space_group_name_H-M   'P 1'
_cell_length_a   7.28336437
_cell_length_b   7.28336437
_cell_length_c   3.64168215
_cell_angle_alpha   90.00000000
_cell_angle_beta   90.00000000
_cell_angle_gamma   90.00000000
_symmetry_Int_Tables_number   1
_chemical_formula_structural   Mo
_chemical_formula_sum   Mo16
_cell_volume   193.18175713
_cell_formula_units_Z   16
loop_
 _symmetry_equiv_pos_site_id
 _symmetry_equiv_pos_as_xyz
  1  'x, y, z'
loop_
 _atom_site_type_symbol
 _atom_site_label
 _atom_site_symmetry_multiplicity
 _atom_site_fract_x
 _atom_site_fract_y
 _atom_site_fract_z
 _atom_site_occupancy
  Mo  Mo0  1  -0.07351650  0.00341466  0.07715440  1
  Mo  Mo1  1  1.78710000  1.79672000  0.00715645  1
  Mo  Mo2  1  1.83559000  7.21139000  1.92714000  1
  Mo  Mo3  1  -0.03395550  1.81906000  1.80818000  1
  Mo  Mo4  1  3.59707000  -0.01531050  0.02019340  1
  Mo  Mo5  1  5.46669000  1.81864000  3.58137000  1
  Mo  Mo6  1  5.43704000  7.33748000  1.82574000  1
  Mo  Mo7  1  3.61977000  1.75909000  1.76838000  1
  Mo  Mo8  1  7.25438000  3.57089000  -0.02312640  1
  Mo  Mo9  1  1.78823000  5.42849000  3.65077000  1
  Mo  Mo10  1  1.90109000  3.61710000  1.86821000  1
  Mo  Mo11  1  0.06161350  5.38377000  1.81114000  1
  Mo  Mo12  1  3.68712000  3.71553000  3.57546000  1
  Mo  Mo13  1  5.45172000  5.57133000  3.66302000  1
  Mo  Mo14  1  5.52432000  3.73014000  1.80105000  1
  Mo  Mo15  1  3.63639000  5.47626000  1.75017000  1
