# generated using pymatgen
data_Mo
_symmetry_space_group_name_H-M   'P 1'
_cell_length_a   7.28336437
_cell_length_b   7.28336437
_cell_length_c   3.64168215
_cell_angle_alpha   90.00000000
_cell_angle_beta   90.00000000
_cell_angle_gamma   90.00000000
_symmetry_Int_Tables_number   1
_chemical_formula_structural   Mo
_chemical_formula_sum   Mo16
_cell_volume   193.18175713
_cell_formula_units_Z   16
loop_
 _symmetry_equiv_pos_site_id
 _symmetry_equiv_pos_as_xyz
  1  'x, y, z'
loop_
 _atom_site_type_symbol
 _atom_site_label
 _atom_site_symmetry_multiplicity
 _atom_site_fract_x
 _atom_site_fract_y
 _atom_site_fract_z
 _atom_site_occupancy
  Mo  Mo0  1  -0.05145650  0.02411300  -0.03873710  1
  Mo  Mo1  1  1.93980000  1.90316000  -0.04635030  1
  Mo  Mo2  1  1.84987000  7.33451000  1.88381000  1
  Mo  Mo3  1  0.03117250  1.74760000  1.82987000  1
  Mo  Mo4  1  3.66216000  -0.13223600  0.01807300  1
  Mo  Mo5  1  5.40934000  1.82897000  3.61183000  1
  Mo  Mo6  1  5.52032000  7.24557000  1.89867000  1
  Mo  Mo7  1  3.63921000  1.82781000  1.76064000  1
  Mo  Mo8  1  7.21526000  3.57222000  -0.01308110  1
  Mo  Mo9  1  1.74114000  5.56044000  3.68903000  1
  Mo  Mo10  1  1.80881000  3.63879000  1.86218000  1
  Mo  Mo11  1  0.09898880  5.51384000  1.81874000  1
  Mo  Mo12  1  3.62145000  3.69635000  3.65107000  1
  Mo  Mo13  1  5.48859000  5.38821000  3.63846000  1
  Mo  Mo14  1  5.35712000  3.62060000  1.77220000  1
  Mo  Mo15  1  3.60885000  5.45405000  1.77560000  1
