# generated using pymatgen
data_Mo
_symmetry_space_group_name_H-M   'P 1'
_cell_length_a   7.28336437
_cell_length_b   7.28336437
_cell_length_c   3.64168215
_cell_angle_alpha   90.00000000
_cell_angle_beta   90.00000000
_cell_angle_gamma   90.00000000
_symmetry_Int_Tables_number   1
_chemical_formula_structural   Mo
_chemical_formula_sum   Mo16
_cell_volume   193.18175713
_cell_formula_units_Z   16
loop_
 _symmetry_equiv_pos_site_id
 _symmetry_equiv_pos_as_xyz
  1  'x, y, z'
loop_
 _atom_site_type_symbol
 _atom_site_label
 _atom_site_symmetry_multiplicity
 _atom_site_fract_x
 _atom_site_fract_y
 _atom_site_fract_z
 _atom_site_occupancy
  Mo  Mo0  1  -0.00212237  0.11730800  0.03295150  1
  Mo  Mo1  1  1.76668000  1.82233000  0.01249910  1
  Mo  Mo2  1  1.89210000  7.27812000  1.80905000  1
  Mo  Mo3  1  0.02221690  1.76456000  1.82137000  1
  Mo  Mo4  1  3.63063000  0.02670830  0.03391710  1
  Mo  Mo5  1  5.37208000  1.76272000  3.57527000  1
  Mo  Mo6  1  5.50978000  7.20671000  1.91690000  1
  Mo  Mo7  1  3.54941000  1.80813000  1.82047000  1
  Mo  Mo8  1  7.23345000  3.59655000  0.02365770  1
  Mo  Mo9  1  1.74942000  5.43070000  3.63308000  1
  Mo  Mo10  1  1.82803000  3.63158000  1.73829000  1
  Mo  Mo11  1  0.08606700  5.51471000  1.81105000  1
  Mo  Mo12  1  3.62778000  3.67595000  3.59561000  1
  Mo  Mo13  1  5.57227000  5.43461000  3.63687000  1
  Mo  Mo14  1  5.41322000  3.62667000  1.85757000  1
  Mo  Mo15  1  3.68963000  5.52664000  1.79344000  1
