# generated using pymatgen
data_Mo
_symmetry_space_group_name_H-M   'P 1'
_cell_length_a   7.28336437
_cell_length_b   7.28336437
_cell_length_c   3.64168215
_cell_angle_alpha   90.00000000
_cell_angle_beta   90.00000000
_cell_angle_gamma   90.00000000
_symmetry_Int_Tables_number   1
_chemical_formula_structural   Mo
_chemical_formula_sum   Mo16
_cell_volume   193.18175713
_cell_formula_units_Z   16
loop_
 _symmetry_equiv_pos_site_id
 _symmetry_equiv_pos_as_xyz
  1  'x, y, z'
loop_
 _atom_site_type_symbol
 _atom_site_label
 _atom_site_symmetry_multiplicity
 _atom_site_fract_x
 _atom_site_fract_y
 _atom_site_fract_z
 _atom_site_occupancy
  Mo  Mo0  1  -0.05057500  0.05866290  0.06791630  1
  Mo  Mo1  1  1.85440000  1.84577000  -0.00113900  1
  Mo  Mo2  1  1.80969000  7.21259000  1.81118000  1
  Mo  Mo3  1  0.07281670  1.76555000  1.78700000  1
  Mo  Mo4  1  3.61037000  -0.01520440  0.05740420  1
  Mo  Mo5  1  5.39422000  1.76234000  3.63548000  1
  Mo  Mo6  1  5.42319000  7.23092000  1.92044000  1
  Mo  Mo7  1  3.62532000  1.88701000  1.86812000  1
  Mo  Mo8  1  7.29252000  3.54451000  -0.06734560  1
  Mo  Mo9  1  1.69028000  5.42847000  3.61924000  1
  Mo  Mo10  1  1.88497000  3.65738000  1.73462000  1
  Mo  Mo11  1  0.07580040  5.42703000  1.74337000  1
  Mo  Mo12  1  3.71698000  3.76593000  3.65223000  1
  Mo  Mo13  1  5.45682000  5.47285000  3.61561000  1
  Mo  Mo14  1  5.51027000  3.56894000  1.84579000  1
  Mo  Mo15  1  3.57356000  5.61124000  1.82208000  1
