# generated using pymatgen
data_Mo
_symmetry_space_group_name_H-M   'P 1'
_cell_length_a   7.28336437
_cell_length_b   7.28336437
_cell_length_c   3.64168215
_cell_angle_alpha   90.00000000
_cell_angle_beta   90.00000000
_cell_angle_gamma   90.00000000
_symmetry_Int_Tables_number   1
_chemical_formula_structural   Mo
_chemical_formula_sum   Mo16
_cell_volume   193.18175713
_cell_formula_units_Z   16
loop_
 _symmetry_equiv_pos_site_id
 _symmetry_equiv_pos_as_xyz
  1  'x, y, z'
loop_
 _atom_site_type_symbol
 _atom_site_label
 _atom_site_symmetry_multiplicity
 _atom_site_fract_x
 _atom_site_fract_y
 _atom_site_fract_z
 _atom_site_occupancy
  Mo  Mo0  1  0.11022200  0.04065540  -0.08715700  1
  Mo  Mo1  1  1.79680000  1.78798000  0.01189510  1
  Mo  Mo2  1  1.75566000  7.31619000  1.76579000  1
  Mo  Mo3  1  -0.05655730  1.80815000  1.88042000  1
  Mo  Mo4  1  3.54096000  0.02152590  0.00611551  1
  Mo  Mo5  1  5.32995000  1.78074000  3.57014000  1
  Mo  Mo6  1  5.37973000  7.24922000  1.76176000  1
  Mo  Mo7  1  3.70181000  1.86789000  1.77690000  1
  Mo  Mo8  1  7.28698000  3.62322000  -0.03892480  1
  Mo  Mo9  1  1.80958000  5.43228000  3.67246000  1
  Mo  Mo10  1  1.83723000  3.64988000  1.84927000  1
  Mo  Mo11  1  -0.04864370  5.44251000  1.85845000  1
  Mo  Mo12  1  3.66861000  3.68232000  3.76655000  1
  Mo  Mo13  1  5.54351000  5.44007000  3.60989000  1
  Mo  Mo14  1  5.59091000  3.58870000  1.84387000  1
  Mo  Mo15  1  3.69387000  5.49267000  1.86457000  1
