# generated using pymatgen
data_Mo
_symmetry_space_group_name_H-M   'P 1'
_cell_length_a   7.28336437
_cell_length_b   7.28336437
_cell_length_c   3.64168215
_cell_angle_alpha   90.00000000
_cell_angle_beta   90.00000000
_cell_angle_gamma   90.00000000
_symmetry_Int_Tables_number   1
_chemical_formula_structural   Mo
_chemical_formula_sum   Mo16
_cell_volume   193.18175713
_cell_formula_units_Z   16
loop_
 _symmetry_equiv_pos_site_id
 _symmetry_equiv_pos_as_xyz
  1  'x, y, z'
loop_
 _atom_site_type_symbol
 _atom_site_label
 _atom_site_symmetry_multiplicity
 _atom_site_fract_x
 _atom_site_fract_y
 _atom_site_fract_z
 _atom_site_occupancy
  Mo  Mo0  1  -0.02877000  0.05054030  0.01084780  1
  Mo  Mo1  1  1.89870000  1.83819000  0.03421550  1
  Mo  Mo2  1  1.76546000  7.24860000  1.80728000  1
  Mo  Mo3  1  0.08514380  1.82999000  1.80856000  1
  Mo  Mo4  1  3.61503000  -0.04501280  -0.00563054  1
  Mo  Mo5  1  5.39976000  1.79074000  3.59138000  1
  Mo  Mo6  1  5.43278000  7.21176000  1.78060000  1
  Mo  Mo7  1  3.64324000  1.90537000  1.81566000  1
  Mo  Mo8  1  7.21506000  3.65335000  0.05531700  1
  Mo  Mo9  1  1.67573000  5.37434000  3.66638000  1
  Mo  Mo10  1  1.89024000  3.60405000  1.86531000  1
  Mo  Mo11  1  -0.00213442  5.46172000  1.77829000  1
  Mo  Mo12  1  3.78861000  3.69368000  3.66192000  1
  Mo  Mo13  1  5.43360000  5.45193000  3.59157000  1
  Mo  Mo14  1  5.53644000  3.63825000  1.84358000  1
  Mo  Mo15  1  3.59175000  5.51650000  1.80670000  1
