# generated using pymatgen
data_Mo
_symmetry_space_group_name_H-M   'P 1'
_cell_length_a   7.28336437
_cell_length_b   7.28336437
_cell_length_c   3.64168215
_cell_angle_alpha   90.00000000
_cell_angle_beta   90.00000000
_cell_angle_gamma   90.00000000
_symmetry_Int_Tables_number   1
_chemical_formula_structural   Mo
_chemical_formula_sum   Mo16
_cell_volume   193.18175713
_cell_formula_units_Z   16
loop_
 _symmetry_equiv_pos_site_id
 _symmetry_equiv_pos_as_xyz
  1  'x, y, z'
loop_
 _atom_site_type_symbol
 _atom_site_label
 _atom_site_symmetry_multiplicity
 _atom_site_fract_x
 _atom_site_fract_y
 _atom_site_fract_z
 _atom_site_occupancy
  Mo  Mo0  1  -0.02810630  -0.09267790  0.10091400  1
  Mo  Mo1  1  1.81514000  1.86248000  -0.07311360  1
  Mo  Mo2  1  1.89843000  7.27076000  1.93471000  1
  Mo  Mo3  1  0.05556950  1.79709000  1.78327000  1
  Mo  Mo4  1  3.72066000  0.00168875  0.02280690  1
  Mo  Mo5  1  5.55171000  1.85697000  3.64136000  1
  Mo  Mo6  1  5.49525000  7.33817000  1.82754000  1
  Mo  Mo7  1  3.56738000  1.71339000  1.75273000  1
  Mo  Mo8  1  7.18463000  3.62406000  -0.02250870  1
  Mo  Mo9  1  1.80362000  5.49015000  3.63105000  1
  Mo  Mo10  1  1.74102000  3.61063000  1.76056000  1
  Mo  Mo11  1  0.07025560  5.43347000  1.80794000  1
  Mo  Mo12  1  3.67899000  3.63451000  3.54597000  1
  Mo  Mo13  1  5.39922000  5.51098000  3.70089000  1
  Mo  Mo14  1  5.38423000  3.69265000  1.82253000  1
  Mo  Mo15  1  3.60263000  5.47967000  1.87535000  1
