# generated using pymatgen
data_Mo
_symmetry_space_group_name_H-M   'P 1'
_cell_length_a   7.27806742
_cell_length_b   7.27806742
_cell_length_c   3.63903379
_cell_angle_alpha   90.00000000
_cell_angle_beta   90.00000000
_cell_angle_gamma   90.00000000
_symmetry_Int_Tables_number   1
_chemical_formula_structural   Mo
_chemical_formula_sum   Mo16
_cell_volume   192.76058556
_cell_formula_units_Z   16
loop_
 _symmetry_equiv_pos_site_id
 _symmetry_equiv_pos_as_xyz
  1  'x, y, z'
loop_
 _atom_site_type_symbol
 _atom_site_label
 _atom_site_symmetry_multiplicity
 _atom_site_fract_x
 _atom_site_fract_y
 _atom_site_fract_z
 _atom_site_occupancy
  Mo  Mo0  1  0.01494310  7.27426000  3.62813000  1
  Mo  Mo1  1  1.83484000  1.83238000  0.01980970  1
  Mo  Mo2  1  1.82115000  7.27676000  1.80422000  1
  Mo  Mo3  1  7.28645000  1.82143000  1.83624000  1
  Mo  Mo4  1  3.66299000  7.29667000  0.00547520  1
  Mo  Mo5  1  5.44896000  1.81975000  -0.01138860  1
  Mo  Mo6  1  5.48578000  -0.02604960  1.84693000  1
  Mo  Mo7  1  3.62065000  1.82588000  1.81391000  1
  Mo  Mo8  1  7.26957000  3.62666000  3.62591000  1
  Mo  Mo9  1  1.79504000  5.47153000  3.63760000  1
  Mo  Mo10  1  1.81850000  3.63521000  1.78968000  1
  Mo  Mo11  1  -0.00869752  5.45959000  1.82367000  1
  Mo  Mo12  1  3.62375000  3.62018000  3.64644000  1
  Mo  Mo13  1  5.43652000  5.45862000  3.62063000  1
  Mo  Mo14  1  5.46887000  3.64933000  1.82217000  1
  Mo  Mo15  1  3.64471000  5.45987000  1.84162000  1
