# generated using pymatgen
data_Mo
_symmetry_space_group_name_H-M   'P 1'
_cell_length_a   7.28336437
_cell_length_b   7.28336437
_cell_length_c   3.64168215
_cell_angle_alpha   90.00000000
_cell_angle_beta   90.00000000
_cell_angle_gamma   90.00000000
_symmetry_Int_Tables_number   1
_chemical_formula_structural   Mo
_chemical_formula_sum   Mo16
_cell_volume   193.18175713
_cell_formula_units_Z   16
loop_
 _symmetry_equiv_pos_site_id
 _symmetry_equiv_pos_as_xyz
  1  'x, y, z'
loop_
 _atom_site_type_symbol
 _atom_site_label
 _atom_site_symmetry_multiplicity
 _atom_site_fract_x
 _atom_site_fract_y
 _atom_site_fract_z
 _atom_site_occupancy
  Mo  Mo0  1  0.04738200  -0.04581590  -0.07021150  1
  Mo  Mo1  1  1.95936000  1.85721000  0.02107070  1
  Mo  Mo2  1  1.77069000  7.30504000  1.85945000  1
  Mo  Mo3  1  -0.03811520  1.76038000  1.84556000  1
  Mo  Mo4  1  3.45311000  -0.01447520  0.04770890  1
  Mo  Mo5  1  5.43861000  1.79702000  3.66161000  1
  Mo  Mo6  1  5.38076000  7.33027000  1.81981000  1
  Mo  Mo7  1  3.70981000  1.79869000  1.86081000  1
  Mo  Mo8  1  7.31210000  3.53758000  -0.04328200  1
  Mo  Mo9  1  1.76825000  5.47256000  3.58348000  1
  Mo  Mo10  1  1.83520000  3.70942000  1.79552000  1
  Mo  Mo11  1  -0.07238640  5.39028000  1.81346000  1
  Mo  Mo12  1  3.71452000  3.76164000  3.62919000  1
  Mo  Mo13  1  5.55435000  5.46709000  3.67678000  1
  Mo  Mo14  1  5.48067000  3.68089000  1.78427000  1
  Mo  Mo15  1  3.62632000  5.41621000  1.82676000  1
