# generated using pymatgen
data_Mo
_symmetry_space_group_name_H-M   'P 1'
_cell_length_a   7.28336437
_cell_length_b   7.28336437
_cell_length_c   3.64168215
_cell_angle_alpha   90.00000000
_cell_angle_beta   90.00000000
_cell_angle_gamma   90.00000000
_symmetry_Int_Tables_number   1
_chemical_formula_structural   Mo
_chemical_formula_sum   Mo16
_cell_volume   193.18175713
_cell_formula_units_Z   16
loop_
 _symmetry_equiv_pos_site_id
 _symmetry_equiv_pos_as_xyz
  1  'x, y, z'
loop_
 _atom_site_type_symbol
 _atom_site_label
 _atom_site_symmetry_multiplicity
 _atom_site_fract_x
 _atom_site_fract_y
 _atom_site_fract_z
 _atom_site_occupancy
  Mo  Mo0  1  -0.11346600  -0.12589600  -0.07442440  1
  Mo  Mo1  1  1.69236000  1.84299000  0.05286880  1
  Mo  Mo2  1  1.81616000  7.26598000  1.81806000  1
  Mo  Mo3  1  0.00863387  1.72266000  1.86189000  1
  Mo  Mo4  1  3.56491000  0.05296850  -0.00527276  1
  Mo  Mo5  1  5.54988000  1.88705000  3.68370000  1
  Mo  Mo6  1  5.41772000  7.26601000  1.87266000  1
  Mo  Mo7  1  3.66422000  1.79785000  1.87918000  1
  Mo  Mo8  1  7.38788000  3.68437000  -0.03715690  1
  Mo  Mo9  1  1.90990000  5.47755000  3.64118000  1
  Mo  Mo10  1  1.82868000  3.66719000  1.72657000  1
  Mo  Mo11  1  -0.00206999  5.47169000  1.78155000  1
  Mo  Mo12  1  3.66852000  3.61012000  3.68391000  1
  Mo  Mo13  1  5.44453000  5.44750000  3.59584000  1
  Mo  Mo14  1  5.46275000  3.60859000  1.84259000  1
  Mo  Mo15  1  3.64003000  5.54737000  1.78886000  1
