# generated using pymatgen
data_Mo
_symmetry_space_group_name_H-M   'P 1'
_cell_length_a   7.28336437
_cell_length_b   7.28336437
_cell_length_c   3.64168215
_cell_angle_alpha   90.00000000
_cell_angle_beta   90.00000000
_cell_angle_gamma   90.00000000
_symmetry_Int_Tables_number   1
_chemical_formula_structural   Mo
_chemical_formula_sum   Mo16
_cell_volume   193.18175713
_cell_formula_units_Z   16
loop_
 _symmetry_equiv_pos_site_id
 _symmetry_equiv_pos_as_xyz
  1  'x, y, z'
loop_
 _atom_site_type_symbol
 _atom_site_label
 _atom_site_symmetry_multiplicity
 _atom_site_fract_x
 _atom_site_fract_y
 _atom_site_fract_z
 _atom_site_occupancy
  Mo  Mo0  1  -0.00884720  -0.04174850  0.02686990  1
  Mo  Mo1  1  1.79388000  1.77646000  0.00336976  1
  Mo  Mo2  1  1.69482000  7.22140000  1.78838000  1
  Mo  Mo3  1  -0.07358960  1.84299000  1.83496000  1
  Mo  Mo4  1  3.56677000  -0.01936140  -0.03392660  1
  Mo  Mo5  1  5.48304000  1.83045000  3.66185000  1
  Mo  Mo6  1  5.46637000  7.28275000  1.78608000  1
  Mo  Mo7  1  3.66744000  1.77648000  1.79493000  1
  Mo  Mo8  1  7.31875000  3.66245000  0.03126250  1
  Mo  Mo9  1  1.92952000  5.39143000  3.71309000  1
  Mo  Mo10  1  1.80502000  3.61837000  1.76745000  1
  Mo  Mo11  1  -0.01274680  5.46966000  1.90183000  1
  Mo  Mo12  1  3.69698000  3.63663000  3.62177000  1
  Mo  Mo13  1  5.48944000  5.51533000  3.60097000  1
  Mo  Mo14  1  5.49199000  3.67116000  1.77600000  1
  Mo  Mo15  1  3.63180000  5.58955000  1.83711000  1
