# generated using pymatgen
data_Mo
_symmetry_space_group_name_H-M   'P 1'
_cell_length_a   7.28336437
_cell_length_b   7.28336437
_cell_length_c   3.64168215
_cell_angle_alpha   90.00000000
_cell_angle_beta   90.00000000
_cell_angle_gamma   90.00000000
_symmetry_Int_Tables_number   1
_chemical_formula_structural   Mo
_chemical_formula_sum   Mo16
_cell_volume   193.18175713
_cell_formula_units_Z   16
loop_
 _symmetry_equiv_pos_site_id
 _symmetry_equiv_pos_as_xyz
  1  'x, y, z'
loop_
 _atom_site_type_symbol
 _atom_site_label
 _atom_site_symmetry_multiplicity
 _atom_site_fract_x
 _atom_site_fract_y
 _atom_site_fract_z
 _atom_site_occupancy
  Mo  Mo0  1  -0.01455020  -0.09149300  0.04023100  1
  Mo  Mo1  1  1.77705000  1.89817000  -0.05638850  1
  Mo  Mo2  1  1.86806000  7.22082000  1.88201000  1
  Mo  Mo3  1  0.09961640  1.79587000  1.81751000  1
  Mo  Mo4  1  3.74885000  0.06287990  0.11003500  1
  Mo  Mo5  1  5.50072000  1.85623000  3.66738000  1
  Mo  Mo6  1  5.53610000  7.33233000  1.79409000  1
  Mo  Mo7  1  3.58497000  1.71873000  1.77545000  1
  Mo  Mo8  1  7.23059000  3.72124000  -0.08736300  1
  Mo  Mo9  1  1.80769000  5.45123000  3.62751000  1
  Mo  Mo10  1  1.80435000  3.73454000  1.77836000  1
  Mo  Mo11  1  0.01389010  5.52641000  1.82951000  1
  Mo  Mo12  1  3.62614000  3.53510000  3.58832000  1
  Mo  Mo13  1  5.37296000  5.46483000  3.68689000  1
  Mo  Mo14  1  5.37014000  3.65507000  1.85405000  1
  Mo  Mo15  1  3.61406000  5.34204000  1.80439000  1
