# generated using pymatgen
data_Mo
_symmetry_space_group_name_H-M   'P 1'
_cell_length_a   7.28336437
_cell_length_b   7.28336437
_cell_length_c   3.64168215
_cell_angle_alpha   90.00000000
_cell_angle_beta   90.00000000
_cell_angle_gamma   90.00000000
_symmetry_Int_Tables_number   1
_chemical_formula_structural   Mo
_chemical_formula_sum   Mo16
_cell_volume   193.18175713
_cell_formula_units_Z   16
loop_
 _symmetry_equiv_pos_site_id
 _symmetry_equiv_pos_as_xyz
  1  'x, y, z'
loop_
 _atom_site_type_symbol
 _atom_site_label
 _atom_site_symmetry_multiplicity
 _atom_site_fract_x
 _atom_site_fract_y
 _atom_site_fract_z
 _atom_site_occupancy
  Mo  Mo0  1  -0.05624450  0.08304820  0.00160551  1
  Mo  Mo1  1  1.84259000  1.79091000  0.03939420  1
  Mo  Mo2  1  1.81642000  7.24323000  1.87327000  1
  Mo  Mo3  1  0.15180100  1.80968000  1.86293000  1
  Mo  Mo4  1  3.69803000  -0.02337420  -0.02730740  1
  Mo  Mo5  1  5.48586000  1.89862000  3.56052000  1
  Mo  Mo6  1  5.51065000  7.26818000  1.83362000  1
  Mo  Mo7  1  3.68260000  1.83703000  1.75666000  1
  Mo  Mo8  1  7.27794000  3.70096000  0.01101400  1
  Mo  Mo9  1  1.81080000  5.39863000  3.76353000  1
  Mo  Mo10  1  1.81931000  3.61991000  1.74092000  1
  Mo  Mo11  1  -0.05708360  5.46033000  1.87350000  1
  Mo  Mo12  1  3.61094000  3.62009000  3.65563000  1
  Mo  Mo13  1  5.37888000  5.39052000  3.60431000  1
  Mo  Mo14  1  5.41328000  3.61360000  1.79517000  1
  Mo  Mo15  1  3.55486000  5.51264000  1.76723000  1
