# generated using pymatgen
data_Mo
_symmetry_space_group_name_H-M   'P 1'
_cell_length_a   7.28336437
_cell_length_b   7.28336437
_cell_length_c   3.64168215
_cell_angle_alpha   90.00000000
_cell_angle_beta   90.00000000
_cell_angle_gamma   90.00000000
_symmetry_Int_Tables_number   1
_chemical_formula_structural   Mo
_chemical_formula_sum   Mo16
_cell_volume   193.18175713
_cell_formula_units_Z   16
loop_
 _symmetry_equiv_pos_site_id
 _symmetry_equiv_pos_as_xyz
  1  'x, y, z'
loop_
 _atom_site_type_symbol
 _atom_site_label
 _atom_site_symmetry_multiplicity
 _atom_site_fract_x
 _atom_site_fract_y
 _atom_site_fract_z
 _atom_site_occupancy
  Mo  Mo0  1  -0.04561270  -0.09556550  0.01393850  1
  Mo  Mo1  1  1.91047000  1.84537000  -0.06889390  1
  Mo  Mo2  1  1.77665000  7.26565000  1.84170000  1
  Mo  Mo3  1  0.01318240  1.79010000  1.80592000  1
  Mo  Mo4  1  3.63100000  -0.04004250  -0.06547720  1
  Mo  Mo5  1  5.47201000  1.78681000  3.67735000  1
  Mo  Mo6  1  5.55112000  7.36749000  1.76407000  1
  Mo  Mo7  1  3.57483000  1.81712000  1.74984000  1
  Mo  Mo8  1  7.32122000  3.54852000  0.06033440  1
  Mo  Mo9  1  1.71543000  5.48899000  3.68361000  1
  Mo  Mo10  1  1.84370000  3.61217000  1.85028000  1
  Mo  Mo11  1  0.05709080  5.40696000  1.80773000  1
  Mo  Mo12  1  3.62735000  3.76640000  3.59373000  1
  Mo  Mo13  1  5.48239000  5.51572000  3.68165000  1
  Mo  Mo14  1  5.38704000  3.62585000  1.79447000  1
  Mo  Mo15  1  3.62275000  5.52245000  1.92175000  1
