# generated using pymatgen
data_Mo
_symmetry_space_group_name_H-M   'P 1'
_cell_length_a   7.28336437
_cell_length_b   7.28336437
_cell_length_c   3.64168215
_cell_angle_alpha   90.00000000
_cell_angle_beta   90.00000000
_cell_angle_gamma   90.00000000
_symmetry_Int_Tables_number   1
_chemical_formula_structural   Mo
_chemical_formula_sum   Mo16
_cell_volume   193.18175713
_cell_formula_units_Z   16
loop_
 _symmetry_equiv_pos_site_id
 _symmetry_equiv_pos_as_xyz
  1  'x, y, z'
loop_
 _atom_site_type_symbol
 _atom_site_label
 _atom_site_symmetry_multiplicity
 _atom_site_fract_x
 _atom_site_fract_y
 _atom_site_fract_z
 _atom_site_occupancy
  Mo  Mo0  1  -0.06305150  -0.03097940  -0.00861418  1
  Mo  Mo1  1  1.91168000  1.81117000  0.05524260  1
  Mo  Mo2  1  1.79529000  7.26779000  1.71626000  1
  Mo  Mo3  1  -0.04480320  1.86519000  1.84031000  1
  Mo  Mo4  1  3.60714000  0.03724530  -0.02641060  1
  Mo  Mo5  1  5.35197000  1.80530000  3.68708000  1
  Mo  Mo6  1  5.34391000  7.27017000  1.73555000  1
  Mo  Mo7  1  3.68812000  1.85939000  1.91666000  1
  Mo  Mo8  1  7.35726000  3.53678000  0.01101070  1
  Mo  Mo9  1  1.79394000  5.44816000  3.57891000  1
  Mo  Mo10  1  1.89189000  3.61270000  1.90475000  1
  Mo  Mo11  1  -0.01123520  5.40365000  1.77651000  1
  Mo  Mo12  1  3.70076000  3.71492000  3.65139000  1
  Mo  Mo13  1  5.50810000  5.51515000  3.60139000  1
  Mo  Mo14  1  5.53956000  3.62085000  1.81937000  1
  Mo  Mo15  1  3.57012000  5.48651000  1.85259000  1
