# generated using pymatgen
data_Mo
_symmetry_space_group_name_H-M   'P 1'
_cell_length_a   7.28336437
_cell_length_b   7.28336437
_cell_length_c   3.64168215
_cell_angle_alpha   90.00000000
_cell_angle_beta   90.00000000
_cell_angle_gamma   90.00000000
_symmetry_Int_Tables_number   1
_chemical_formula_structural   Mo
_chemical_formula_sum   Mo16
_cell_volume   193.18175713
_cell_formula_units_Z   16
loop_
 _symmetry_equiv_pos_site_id
 _symmetry_equiv_pos_as_xyz
  1  'x, y, z'
loop_
 _atom_site_type_symbol
 _atom_site_label
 _atom_site_symmetry_multiplicity
 _atom_site_fract_x
 _atom_site_fract_y
 _atom_site_fract_z
 _atom_site_occupancy
  Mo  Mo0  1  -0.08519710  -0.09612650  0.09813070  1
  Mo  Mo1  1  1.73613000  1.76788000  -0.02235980  1
  Mo  Mo2  1  1.79981000  7.20765000  1.90787000  1
  Mo  Mo3  1  0.02736780  1.79558000  1.78623000  1
  Mo  Mo4  1  3.58115000  0.11065400  -0.00577369  1
  Mo  Mo5  1  5.46956000  1.86682000  3.62999000  1
  Mo  Mo6  1  5.44077000  7.32008000  1.77328000  1
  Mo  Mo7  1  3.63082000  1.81997000  1.74398000  1
  Mo  Mo8  1  7.24597000  3.53125000  -0.05751040  1
  Mo  Mo9  1  1.91584000  5.44426000  3.64788000  1
  Mo  Mo10  1  1.80401000  3.60601000  1.84584000  1
  Mo  Mo11  1  0.10676400  5.41478000  1.86885000  1
  Mo  Mo12  1  3.70353000  3.64813000  3.55057000  1
  Mo  Mo13  1  5.39334000  5.57389000  3.71705000  1
  Mo  Mo14  1  5.50982000  3.76719000  1.78671000  1
  Mo  Mo15  1  3.66093000  5.44598000  1.84127000  1
