# generated using pymatgen
data_Mo
_symmetry_space_group_name_H-M   'P 1'
_cell_length_a   7.28336437
_cell_length_b   7.28336437
_cell_length_c   3.64168215
_cell_angle_alpha   90.00000000
_cell_angle_beta   90.00000000
_cell_angle_gamma   90.00000000
_symmetry_Int_Tables_number   1
_chemical_formula_structural   Mo
_chemical_formula_sum   Mo16
_cell_volume   193.18175713
_cell_formula_units_Z   16
loop_
 _symmetry_equiv_pos_site_id
 _symmetry_equiv_pos_as_xyz
  1  'x, y, z'
loop_
 _atom_site_type_symbol
 _atom_site_label
 _atom_site_symmetry_multiplicity
 _atom_site_fract_x
 _atom_site_fract_y
 _atom_site_fract_z
 _atom_site_occupancy
  Mo  Mo0  1  0.12653100  0.00655897  -0.05841530  1
  Mo  Mo1  1  1.74318000  1.89374000  -0.01741680  1
  Mo  Mo2  1  1.84335000  7.27675000  1.81396000  1
  Mo  Mo3  1  -0.07924520  1.83537000  1.84523000  1
  Mo  Mo4  1  3.66852000  -0.00191531  -0.01714690  1
  Mo  Mo5  1  5.52719000  1.77256000  3.61396000  1
  Mo  Mo6  1  5.49918000  7.21540000  1.88757000  1
  Mo  Mo7  1  3.66404000  1.79710000  1.75825000  1
  Mo  Mo8  1  7.28951000  3.75984000  0.06566150  1
  Mo  Mo9  1  1.86448000  5.45737000  3.71415000  1
  Mo  Mo10  1  1.74572000  3.70643000  1.80686000  1
  Mo  Mo11  1  -0.03954380  5.49676000  1.82979000  1
  Mo  Mo12  1  3.55121000  3.48589000  3.66537000  1
  Mo  Mo13  1  5.40393000  5.41536000  3.58925000  1
  Mo  Mo14  1  5.46023000  3.58812000  1.82072000  1
  Mo  Mo15  1  3.67234000  5.51865000  1.79420000  1
