# generated using pymatgen
data_Mo
_symmetry_space_group_name_H-M   'P 1'
_cell_length_a   7.28336437
_cell_length_b   7.28336437
_cell_length_c   3.64168215
_cell_angle_alpha   90.00000000
_cell_angle_beta   90.00000000
_cell_angle_gamma   90.00000000
_symmetry_Int_Tables_number   1
_chemical_formula_structural   Mo
_chemical_formula_sum   Mo16
_cell_volume   193.18175713
_cell_formula_units_Z   16
loop_
 _symmetry_equiv_pos_site_id
 _symmetry_equiv_pos_as_xyz
  1  'x, y, z'
loop_
 _atom_site_type_symbol
 _atom_site_label
 _atom_site_symmetry_multiplicity
 _atom_site_fract_x
 _atom_site_fract_y
 _atom_site_fract_z
 _atom_site_occupancy
  Mo  Mo0  1  0.04674260  -0.06051500  -0.01636950  1
  Mo  Mo1  1  1.76986000  1.75325000  0.00872764  1
  Mo  Mo2  1  1.80935000  7.26468000  1.80798000  1
  Mo  Mo3  1  -0.01522510  1.85698000  1.84405000  1
  Mo  Mo4  1  3.62348000  0.02937750  -0.04864890  1
  Mo  Mo5  1  5.48707000  1.78944000  3.62429000  1
  Mo  Mo6  1  5.37245000  7.31616000  1.82082000  1
  Mo  Mo7  1  3.66714000  1.95802000  1.81054000  1
  Mo  Mo8  1  7.36634000  3.65720000  0.06918090  1
  Mo  Mo9  1  1.91648000  5.44751000  3.69256000  1
  Mo  Mo10  1  1.81755000  3.63759000  1.77627000  1
  Mo  Mo11  1  -0.09158950  5.36710000  1.84157000  1
  Mo  Mo12  1  3.59525000  3.67765000  3.63637000  1
  Mo  Mo13  1  5.36614000  5.43415000  3.59472000  1
  Mo  Mo14  1  5.52340000  3.51526000  1.79969000  1
  Mo  Mo15  1  3.68618000  5.58016000  1.85024000  1
