# generated using pymatgen
data_Mo
_symmetry_space_group_name_H-M   'P 1'
_cell_length_a   7.28336437
_cell_length_b   7.28336437
_cell_length_c   3.64168215
_cell_angle_alpha   90.00000000
_cell_angle_beta   90.00000000
_cell_angle_gamma   90.00000000
_symmetry_Int_Tables_number   1
_chemical_formula_structural   Mo
_chemical_formula_sum   Mo16
_cell_volume   193.18175713
_cell_formula_units_Z   16
loop_
 _symmetry_equiv_pos_site_id
 _symmetry_equiv_pos_as_xyz
  1  'x, y, z'
loop_
 _atom_site_type_symbol
 _atom_site_label
 _atom_site_symmetry_multiplicity
 _atom_site_fract_x
 _atom_site_fract_y
 _atom_site_fract_z
 _atom_site_occupancy
  Mo  Mo0  1  -0.06365140  0.01939150  0.04146510  1
  Mo  Mo1  1  1.88112000  1.81462000  0.06371400  1
  Mo  Mo2  1  1.78170000  7.33777000  1.80348000  1
  Mo  Mo3  1  0.00614580  1.88077000  1.81444000  1
  Mo  Mo4  1  3.59302000  -0.11123300  -0.10144600  1
  Mo  Mo5  1  5.43491000  1.80519000  3.73091000  1
  Mo  Mo6  1  5.45500000  7.28214000  1.77059000  1
  Mo  Mo7  1  3.59912000  1.74762000  1.89923000  1
  Mo  Mo8  1  7.30695000  3.62560000  0.05955090  1
  Mo  Mo9  1  1.73151000  5.52740000  3.54602000  1
  Mo  Mo10  1  1.81149000  3.59927000  1.84091000  1
  Mo  Mo11  1  0.11222500  5.46195000  1.83006000  1
  Mo  Mo12  1  3.74747000  3.70549000  3.61993000  1
  Mo  Mo13  1  5.48795000  5.42420000  3.64611000  1
  Mo  Mo14  1  5.43413000  3.67278000  1.79879000  1
  Mo  Mo15  1  3.62154000  5.43103000  1.74826000  1
