# generated using pymatgen
data_Mo
_symmetry_space_group_name_H-M   'P 1'
_cell_length_a   7.28336437
_cell_length_b   7.28336437
_cell_length_c   3.64168215
_cell_angle_alpha   90.00000000
_cell_angle_beta   90.00000000
_cell_angle_gamma   90.00000000
_symmetry_Int_Tables_number   1
_chemical_formula_structural   Mo
_chemical_formula_sum   Mo16
_cell_volume   193.18175713
_cell_formula_units_Z   16
loop_
 _symmetry_equiv_pos_site_id
 _symmetry_equiv_pos_as_xyz
  1  'x, y, z'
loop_
 _atom_site_type_symbol
 _atom_site_label
 _atom_site_symmetry_multiplicity
 _atom_site_fract_x
 _atom_site_fract_y
 _atom_site_fract_z
 _atom_site_occupancy
  Mo  Mo0  1  0.15238100  0.02925170  0.04409800  1
  Mo  Mo1  1  1.90441000  1.80566000  -0.01869230  1
  Mo  Mo2  1  1.84011000  7.28831000  1.81447000  1
  Mo  Mo3  1  -0.03129190  1.82306000  1.88991000  1
  Mo  Mo4  1  3.65906000  -0.09555590  0.09922690  1
  Mo  Mo5  1  5.32278000  1.88105000  3.64510000  1
  Mo  Mo6  1  5.47020000  7.24977000  1.82778000  1
  Mo  Mo7  1  3.74153000  1.85278000  1.74563000  1
  Mo  Mo8  1  7.22966000  3.62068000  -0.05315220  1
  Mo  Mo9  1  1.71951000  5.39938000  3.61504000  1
  Mo  Mo10  1  1.83444000  3.58690000  1.72963000  1
  Mo  Mo11  1  -0.05093410  5.51944000  1.89605000  1
  Mo  Mo12  1  3.56230000  3.69056000  3.61490000  1
  Mo  Mo13  1  5.51774000  5.49670000  3.63744000  1
  Mo  Mo14  1  5.47737000  3.66644000  1.81088000  1
  Mo  Mo15  1  3.59137000  5.40958000  1.81369000  1
