# generated using pymatgen
data_Mo
_symmetry_space_group_name_H-M   'P 1'
_cell_length_a   7.28336437
_cell_length_b   7.28336437
_cell_length_c   3.64168215
_cell_angle_alpha   90.00000000
_cell_angle_beta   90.00000000
_cell_angle_gamma   90.00000000
_symmetry_Int_Tables_number   1
_chemical_formula_structural   Mo
_chemical_formula_sum   Mo16
_cell_volume   193.18175713
_cell_formula_units_Z   16
loop_
 _symmetry_equiv_pos_site_id
 _symmetry_equiv_pos_as_xyz
  1  'x, y, z'
loop_
 _atom_site_type_symbol
 _atom_site_label
 _atom_site_symmetry_multiplicity
 _atom_site_fract_x
 _atom_site_fract_y
 _atom_site_fract_z
 _atom_site_occupancy
  Mo  Mo0  1  -0.10291300  -0.09656940  0.02532320  1
  Mo  Mo1  1  1.85543000  1.93740000  -0.03849120  1
  Mo  Mo2  1  1.80147000  7.28421000  1.80578000  1
  Mo  Mo3  1  0.03063860  1.72024000  1.69640000  1
  Mo  Mo4  1  3.64598000  0.01549360  -0.03327110  1
  Mo  Mo5  1  5.50269000  1.79404000  3.61443000  1
  Mo  Mo6  1  5.48704000  7.31719000  1.82923000  1
  Mo  Mo7  1  3.56252000  1.84248000  1.82324000  1
  Mo  Mo8  1  7.25226000  3.57814000  0.01007660  1
  Mo  Mo9  1  1.76604000  5.50211000  3.67383000  1
  Mo  Mo10  1  1.82945000  3.62892000  1.91763000  1
  Mo  Mo11  1  0.07263330  5.49485000  1.80888000  1
  Mo  Mo12  1  3.75518000  3.63301000  3.63811000  1
  Mo  Mo13  1  5.46189000  5.51110000  3.71114000  1
  Mo  Mo14  1  5.40595000  3.63127000  1.76628000  1
  Mo  Mo15  1  3.61437000  5.43012000  1.86341000  1
