# generated using pymatgen
data_Mo
_symmetry_space_group_name_H-M   'P 1'
_cell_length_a   7.28336437
_cell_length_b   7.28336437
_cell_length_c   3.64168215
_cell_angle_alpha   90.00000000
_cell_angle_beta   90.00000000
_cell_angle_gamma   90.00000000
_symmetry_Int_Tables_number   1
_chemical_formula_structural   Mo
_chemical_formula_sum   Mo16
_cell_volume   193.18175713
_cell_formula_units_Z   16
loop_
 _symmetry_equiv_pos_site_id
 _symmetry_equiv_pos_as_xyz
  1  'x, y, z'
loop_
 _atom_site_type_symbol
 _atom_site_label
 _atom_site_symmetry_multiplicity
 _atom_site_fract_x
 _atom_site_fract_y
 _atom_site_fract_z
 _atom_site_occupancy
  Mo  Mo0  1  -0.05279400  0.01291280  0.01397100  1
  Mo  Mo1  1  1.78384000  1.76847000  0.05135440  1
  Mo  Mo2  1  1.85339000  7.21008000  1.81366000  1
  Mo  Mo3  1  0.06720360  1.91583000  1.82866000  1
  Mo  Mo4  1  3.63860000  0.03863020  0.02179850  1
  Mo  Mo5  1  5.49149000  1.75390000  3.66014000  1
  Mo  Mo6  1  5.48243000  7.25016000  1.90848000  1
  Mo  Mo7  1  3.61847000  1.81535000  1.87015000  1
  Mo  Mo8  1  7.27506000  3.70784000  -0.04011470  1
  Mo  Mo9  1  1.88844000  5.44835000  3.61868000  1
  Mo  Mo10  1  1.69313000  3.65697000  1.76719000  1
  Mo  Mo11  1  0.00436465  5.47466000  1.84608000  1
  Mo  Mo12  1  3.63772000  3.59142000  3.58932000  1
  Mo  Mo13  1  5.43510000  5.42968000  3.64469000  1
  Mo  Mo14  1  5.43768000  3.61545000  1.74510000  1
  Mo  Mo15  1  3.68651000  5.53429000  1.77285000  1
