# generated using pymatgen
data_Mo
_symmetry_space_group_name_H-M   'P 1'
_cell_length_a   7.28336437
_cell_length_b   7.28336437
_cell_length_c   3.64168215
_cell_angle_alpha   90.00000000
_cell_angle_beta   90.00000000
_cell_angle_gamma   90.00000000
_symmetry_Int_Tables_number   1
_chemical_formula_structural   Mo
_chemical_formula_sum   Mo16
_cell_volume   193.18175713
_cell_formula_units_Z   16
loop_
 _symmetry_equiv_pos_site_id
 _symmetry_equiv_pos_as_xyz
  1  'x, y, z'
loop_
 _atom_site_type_symbol
 _atom_site_label
 _atom_site_symmetry_multiplicity
 _atom_site_fract_x
 _atom_site_fract_y
 _atom_site_fract_z
 _atom_site_occupancy
  Mo  Mo0  1  -0.00490619  0.04123350  0.01306440  1
  Mo  Mo1  1  1.96262000  1.86054000  -0.03821110  1
  Mo  Mo2  1  1.83324000  7.28997000  1.87902000  1
  Mo  Mo3  1  0.04051910  1.83402000  1.76706000  1
  Mo  Mo4  1  3.60515000  0.00653399  0.08951960  1
  Mo  Mo5  1  5.37843000  1.80220000  3.66376000  1
  Mo  Mo6  1  5.52357000  7.26530000  1.84368000  1
  Mo  Mo7  1  3.65134000  1.81346000  1.77636000  1
  Mo  Mo8  1  7.18287000  3.53398000  -0.07565900  1
  Mo  Mo9  1  1.69739000  5.47066000  3.69873000  1
  Mo  Mo10  1  1.88967000  3.63319000  1.87733000  1
  Mo  Mo11  1  0.01609660  5.43444000  1.74435000  1
  Mo  Mo12  1  3.66591000  3.65155000  3.61973000  1
  Mo  Mo13  1  5.44849000  5.50814000  3.66342000  1
  Mo  Mo14  1  5.43005000  3.70578000  1.77751000  1
  Mo  Mo15  1  3.62019000  5.37300000  1.81233000  1
