# generated using pymatgen
data_Mo
_symmetry_space_group_name_H-M   'P 1'
_cell_length_a   7.28336437
_cell_length_b   7.28336437
_cell_length_c   3.64168215
_cell_angle_alpha   90.00000000
_cell_angle_beta   90.00000000
_cell_angle_gamma   90.00000000
_symmetry_Int_Tables_number   1
_chemical_formula_structural   Mo
_chemical_formula_sum   Mo16
_cell_volume   193.18175713
_cell_formula_units_Z   16
loop_
 _symmetry_equiv_pos_site_id
 _symmetry_equiv_pos_as_xyz
  1  'x, y, z'
loop_
 _atom_site_type_symbol
 _atom_site_label
 _atom_site_symmetry_multiplicity
 _atom_site_fract_x
 _atom_site_fract_y
 _atom_site_fract_z
 _atom_site_occupancy
  Mo  Mo0  1  -0.00050617  0.00792667  -0.06522100  1
  Mo  Mo1  1  1.88835000  1.90185000  -0.01555850  1
  Mo  Mo2  1  1.81078000  7.29984000  1.81091000  1
  Mo  Mo3  1  0.01384160  1.84301000  1.83089000  1
  Mo  Mo4  1  3.54811000  -0.06975350  -0.09620140  1
  Mo  Mo5  1  5.51351000  1.81560000  3.64184000  1
  Mo  Mo6  1  5.42538000  7.30248000  1.74604000  1
  Mo  Mo7  1  3.71601000  1.77623000  1.77744000  1
  Mo  Mo8  1  7.30741000  3.58719000  0.02490370  1
  Mo  Mo9  1  1.78591000  5.39236000  3.71852000  1
  Mo  Mo10  1  1.79240000  3.63085000  1.89506000  1
  Mo  Mo11  1  -0.12736300  5.45517000  1.88988000  1
  Mo  Mo12  1  3.66638000  3.66930000  3.70749000  1
  Mo  Mo13  1  5.50084000  5.54539000  3.63787000  1
  Mo  Mo14  1  5.42011000  3.72027000  1.78038000  1
  Mo  Mo15  1  3.67947000  5.34629000  1.82776000  1
