# generated using pymatgen
data_Mo
_symmetry_space_group_name_H-M   'P 1'
_cell_length_a   7.28336437
_cell_length_b   7.28336437
_cell_length_c   3.64168215
_cell_angle_alpha   90.00000000
_cell_angle_beta   90.00000000
_cell_angle_gamma   90.00000000
_symmetry_Int_Tables_number   1
_chemical_formula_structural   Mo
_chemical_formula_sum   Mo16
_cell_volume   193.18175713
_cell_formula_units_Z   16
loop_
 _symmetry_equiv_pos_site_id
 _symmetry_equiv_pos_as_xyz
  1  'x, y, z'
loop_
 _atom_site_type_symbol
 _atom_site_label
 _atom_site_symmetry_multiplicity
 _atom_site_fract_x
 _atom_site_fract_y
 _atom_site_fract_z
 _atom_site_occupancy
  Mo  Mo0  1  0.05466700  -0.03553210  0.01220000  1
  Mo  Mo1  1  1.89403000  1.82166000  -0.03241170  1
  Mo  Mo2  1  1.84976000  7.30376000  1.87514000  1
  Mo  Mo3  1  -0.03903950  1.84673000  1.68087000  1
  Mo  Mo4  1  3.62475000  -0.02961280  -0.00673956  1
  Mo  Mo5  1  5.46895000  1.79925000  3.60024000  1
  Mo  Mo6  1  5.53725000  7.36886000  1.81745000  1
  Mo  Mo7  1  3.59981000  1.76169000  1.88048000  1
  Mo  Mo8  1  7.23447000  3.56358000  -0.03864300  1
  Mo  Mo9  1  1.73641000  5.50462000  3.62385000  1
  Mo  Mo10  1  1.81370000  3.62848000  1.82924000  1
  Mo  Mo11  1  -0.03034750  5.33658000  1.84909000  1
  Mo  Mo12  1  3.63923000  3.71248000  3.61890000  1
  Mo  Mo13  1  5.45011000  5.48940000  3.74858000  1
  Mo  Mo14  1  5.39575000  3.62668000  1.75631000  1
  Mo  Mo15  1  3.71114000  5.52539000  1.89743000  1
