# generated using pymatgen
data_Mo
_symmetry_space_group_name_H-M   'P 1'
_cell_length_a   7.28336437
_cell_length_b   7.28336437
_cell_length_c   3.64168215
_cell_angle_alpha   90.00000000
_cell_angle_beta   90.00000000
_cell_angle_gamma   90.00000000
_symmetry_Int_Tables_number   1
_chemical_formula_structural   Mo
_chemical_formula_sum   Mo16
_cell_volume   193.18175713
_cell_formula_units_Z   16
loop_
 _symmetry_equiv_pos_site_id
 _symmetry_equiv_pos_as_xyz
  1  'x, y, z'
loop_
 _atom_site_type_symbol
 _atom_site_label
 _atom_site_symmetry_multiplicity
 _atom_site_fract_x
 _atom_site_fract_y
 _atom_site_fract_z
 _atom_site_occupancy
  Mo  Mo0  1  0.08992070  0.08043530  0.02467700  1
  Mo  Mo1  1  1.83045000  1.82715000  0.01842800  1
  Mo  Mo2  1  1.81545000  7.31935000  1.82071000  1
  Mo  Mo3  1  -0.12196700  1.71551000  1.75650000  1
  Mo  Mo4  1  3.68450000  -0.02648240  0.10710400  1
  Mo  Mo5  1  5.39876000  1.83812000  3.55791000  1
  Mo  Mo6  1  5.47697000  7.21668000  1.91846000  1
  Mo  Mo7  1  3.75660000  1.90813000  1.84517000  1
  Mo  Mo8  1  7.25189000  3.61072000  -0.08701050  1
  Mo  Mo9  1  1.80168000  5.44320000  3.64489000  1
  Mo  Mo10  1  1.87182000  3.64656000  1.79605000  1
  Mo  Mo11  1  -0.06334030  5.49763000  1.85027000  1
  Mo  Mo12  1  3.55493000  3.60662000  3.65832000  1
  Mo  Mo13  1  5.49684000  5.48534000  3.66518000  1
  Mo  Mo14  1  5.48083000  3.68325000  1.78725000  1
  Mo  Mo15  1  3.61530000  5.37180000  1.74809000  1
