# generated using pymatgen
data_Mo
_symmetry_space_group_name_H-M   'P 1'
_cell_length_a   7.27806742
_cell_length_b   7.27806742
_cell_length_c   3.63903379
_cell_angle_alpha   90.00000000
_cell_angle_beta   90.00000000
_cell_angle_gamma   90.00000000
_symmetry_Int_Tables_number   1
_chemical_formula_structural   Mo
_chemical_formula_sum   Mo16
_cell_volume   192.76058556
_cell_formula_units_Z   16
loop_
 _symmetry_equiv_pos_site_id
 _symmetry_equiv_pos_as_xyz
  1  'x, y, z'
loop_
 _atom_site_type_symbol
 _atom_site_label
 _atom_site_symmetry_multiplicity
 _atom_site_fract_x
 _atom_site_fract_y
 _atom_site_fract_z
 _atom_site_occupancy
  Mo  Mo0  1  -0.00441368  7.28808000  3.65876000  1
  Mo  Mo1  1  1.82439000  1.81932000  0.01158690  1
  Mo  Mo2  1  1.82169000  7.27524000  1.80893000  1
  Mo  Mo3  1  7.28211000  1.83228000  1.80807000  1
  Mo  Mo4  1  3.63497000  7.27663000  -0.01763420  1
  Mo  Mo5  1  5.46771000  1.80188000  -0.02432680  1
  Mo  Mo6  1  5.43810000  -0.00743969  1.81001000  1
  Mo  Mo7  1  3.64552000  1.81802000  1.78079000  1
  Mo  Mo8  1  7.26797000  3.63014000  3.66337000  1
  Mo  Mo9  1  1.82740000  5.45832000  3.64090000  1
  Mo  Mo10  1  1.80719000  3.65901000  1.83692000  1
  Mo  Mo11  1  -0.00046212  5.45070000  1.81594000  1
  Mo  Mo12  1  3.63147000  3.63322000  3.63889000  1
  Mo  Mo13  1  5.47114000  5.46023000  3.64265000  1
  Mo  Mo14  1  5.45771000  3.64444000  1.84175000  1
  Mo  Mo15  1  3.65152000  5.46200000  1.83441000  1
