# generated using pymatgen
data_Mo
_symmetry_space_group_name_H-M   'P 1'
_cell_length_a   7.28336437
_cell_length_b   7.28336437
_cell_length_c   3.64168215
_cell_angle_alpha   90.00000000
_cell_angle_beta   90.00000000
_cell_angle_gamma   90.00000000
_symmetry_Int_Tables_number   1
_chemical_formula_structural   Mo
_chemical_formula_sum   Mo16
_cell_volume   193.18175713
_cell_formula_units_Z   16
loop_
 _symmetry_equiv_pos_site_id
 _symmetry_equiv_pos_as_xyz
  1  'x, y, z'
loop_
 _atom_site_type_symbol
 _atom_site_label
 _atom_site_symmetry_multiplicity
 _atom_site_fract_x
 _atom_site_fract_y
 _atom_site_fract_z
 _atom_site_occupancy
  Mo  Mo0  1  0.07889660  0.02522690  -0.03111440  1
  Mo  Mo1  1  1.81320000  1.77143000  -0.04520070  1
  Mo  Mo2  1  1.80114000  7.27424000  1.83890000  1
  Mo  Mo3  1  -0.02887310  1.74570000  1.81344000  1
  Mo  Mo4  1  3.64414000  0.05837360  0.06372030  1
  Mo  Mo5  1  5.47099000  1.70545000  3.56633000  1
  Mo  Mo6  1  5.51282000  7.25334000  1.85196000  1
  Mo  Mo7  1  3.76264000  1.92400000  1.76993000  1
  Mo  Mo8  1  7.28840000  3.64599000  -0.03655100  1
  Mo  Mo9  1  1.82911000  5.37085000  3.72099000  1
  Mo  Mo10  1  1.83390000  3.66118000  1.74631000  1
  Mo  Mo11  1  -0.13501100  5.48046000  1.92573000  1
  Mo  Mo12  1  3.52036000  3.68092000  3.62905000  1
  Mo  Mo13  1  5.43833000  5.50617000  3.64914000  1
  Mo  Mo14  1  5.47219000  3.62762000  1.80746000  1
  Mo  Mo15  1  3.63840000  5.49307000  1.84190000  1
