# generated using pymatgen
data_Mo
_symmetry_space_group_name_H-M   'P 1'
_cell_length_a   7.28336437
_cell_length_b   7.28336437
_cell_length_c   3.64168215
_cell_angle_alpha   90.00000000
_cell_angle_beta   90.00000000
_cell_angle_gamma   90.00000000
_symmetry_Int_Tables_number   1
_chemical_formula_structural   Mo
_chemical_formula_sum   Mo16
_cell_volume   193.18175713
_cell_formula_units_Z   16
loop_
 _symmetry_equiv_pos_site_id
 _symmetry_equiv_pos_as_xyz
  1  'x, y, z'
loop_
 _atom_site_type_symbol
 _atom_site_label
 _atom_site_symmetry_multiplicity
 _atom_site_fract_x
 _atom_site_fract_y
 _atom_site_fract_z
 _atom_site_occupancy
  Mo  Mo0  1  -0.05826620  -0.03570060  0.01790880  1
  Mo  Mo1  1  1.86334000  1.79496000  -0.01682410  1
  Mo  Mo2  1  1.90514000  7.30128000  1.87067000  1
  Mo  Mo3  1  0.01172220  1.76593000  1.74435000  1
  Mo  Mo4  1  3.63754000  0.03519480  -0.00799076  1
  Mo  Mo5  1  5.47935000  1.82940000  3.60727000  1
  Mo  Mo6  1  5.46276000  7.29700000  1.79738000  1
  Mo  Mo7  1  3.64431000  1.90978000  1.83873000  1
  Mo  Mo8  1  7.19511000  3.60368000  -0.07688840  1
  Mo  Mo9  1  1.82186000  5.43874000  3.67241000  1
  Mo  Mo10  1  1.70156000  3.54730000  1.80535000  1
  Mo  Mo11  1  0.08451960  5.51423000  1.82503000  1
  Mo  Mo12  1  3.73360000  3.71798000  3.63345000  1
  Mo  Mo13  1  5.44816000  5.41479000  3.69290000  1
  Mo  Mo14  1  5.40244000  3.66753000  1.76118000  1
  Mo  Mo15  1  3.60747000  5.42191000  1.94706000  1
