# generated using pymatgen
data_Mo
_symmetry_space_group_name_H-M   'P 1'
_cell_length_a   7.28336437
_cell_length_b   7.28336437
_cell_length_c   3.64168215
_cell_angle_alpha   90.00000000
_cell_angle_beta   90.00000000
_cell_angle_gamma   90.00000000
_symmetry_Int_Tables_number   1
_chemical_formula_structural   Mo
_chemical_formula_sum   Mo16
_cell_volume   193.18175713
_cell_formula_units_Z   16
loop_
 _symmetry_equiv_pos_site_id
 _symmetry_equiv_pos_as_xyz
  1  'x, y, z'
loop_
 _atom_site_type_symbol
 _atom_site_label
 _atom_site_symmetry_multiplicity
 _atom_site_fract_x
 _atom_site_fract_y
 _atom_site_fract_z
 _atom_site_occupancy
  Mo  Mo0  1  -0.04632720  -0.09167840  0.05491780  1
  Mo  Mo1  1  1.78828000  1.85415000  -0.00151706  1
  Mo  Mo2  1  1.80166000  7.30739000  1.79508000  1
  Mo  Mo3  1  0.04334910  1.81803000  1.82597000  1
  Mo  Mo4  1  3.69608000  -0.03683780  -0.02412670  1
  Mo  Mo5  1  5.52265000  1.89747000  3.73788000  1
  Mo  Mo6  1  5.49195000  7.34873000  1.85817000  1
  Mo  Mo7  1  3.57330000  1.70232000  1.89503000  1
  Mo  Mo8  1  7.26666000  3.70220000  0.02685080  1
  Mo  Mo9  1  1.80336000  5.54441000  3.53608000  1
  Mo  Mo10  1  1.82264000  3.63001000  1.88732000  1
  Mo  Mo11  1  0.08159960  5.47333000  1.79371000  1
  Mo  Mo12  1  3.68342000  3.55378000  3.56587000  1
  Mo  Mo13  1  5.40361000  5.46474000  3.61085000  1
  Mo  Mo14  1  5.39468000  3.66173000  1.79531000  1
  Mo  Mo15  1  3.61371000  5.39422000  1.75461000  1
