# generated using pymatgen
data_Mo
_symmetry_space_group_name_H-M   'P 1'
_cell_length_a   7.28336437
_cell_length_b   7.28336437
_cell_length_c   3.64168215
_cell_angle_alpha   90.00000000
_cell_angle_beta   90.00000000
_cell_angle_gamma   90.00000000
_symmetry_Int_Tables_number   1
_chemical_formula_structural   Mo
_chemical_formula_sum   Mo16
_cell_volume   193.18175713
_cell_formula_units_Z   16
loop_
 _symmetry_equiv_pos_site_id
 _symmetry_equiv_pos_as_xyz
  1  'x, y, z'
loop_
 _atom_site_type_symbol
 _atom_site_label
 _atom_site_symmetry_multiplicity
 _atom_site_fract_x
 _atom_site_fract_y
 _atom_site_fract_z
 _atom_site_occupancy
  Mo  Mo0  1  -0.03852100  0.04725520  -0.05957820  1
  Mo  Mo1  1  1.73929000  1.75921000  0.06925790  1
  Mo  Mo2  1  1.70239000  7.22738000  1.78514000  1
  Mo  Mo3  1  -0.03626120  1.88583000  1.91107000  1
  Mo  Mo4  1  3.61747000  0.06018890  -0.02257250  1
  Mo  Mo5  1  5.47212000  1.77653000  3.68983000  1
  Mo  Mo6  1  5.53866000  7.22211000  1.78345000  1
  Mo  Mo7  1  3.66652000  1.86680000  1.85342000  1
  Mo  Mo8  1  7.40045000  3.73926000  0.05788280  1
  Mo  Mo9  1  1.93129000  5.41437000  3.64612000  1
  Mo  Mo10  1  1.92529000  3.67077000  1.76922000  1
  Mo  Mo11  1  -0.05219740  5.53081000  1.77353000  1
  Mo  Mo12  1  3.52718000  3.53100000  3.66473000  1
  Mo  Mo13  1  5.44334000  5.43409000  3.56495000  1
  Mo  Mo14  1  5.42699000  3.59847000  1.87696000  1
  Mo  Mo15  1  3.67661000  5.45991000  1.74860000  1
