# generated using pymatgen
data_Mo
_symmetry_space_group_name_H-M   'P 1'
_cell_length_a   7.28336437
_cell_length_b   7.28336437
_cell_length_c   3.64168215
_cell_angle_alpha   90.00000000
_cell_angle_beta   90.00000000
_cell_angle_gamma   90.00000000
_symmetry_Int_Tables_number   1
_chemical_formula_structural   Mo
_chemical_formula_sum   Mo16
_cell_volume   193.18175713
_cell_formula_units_Z   16
loop_
 _symmetry_equiv_pos_site_id
 _symmetry_equiv_pos_as_xyz
  1  'x, y, z'
loop_
 _atom_site_type_symbol
 _atom_site_label
 _atom_site_symmetry_multiplicity
 _atom_site_fract_x
 _atom_site_fract_y
 _atom_site_fract_z
 _atom_site_occupancy
  Mo  Mo0  1  -0.06285740  -0.07410630  -0.00095409  1
  Mo  Mo1  1  1.76988000  1.83436000  0.01388670  1
  Mo  Mo2  1  1.87469000  7.36811000  1.79782000  1
  Mo  Mo3  1  0.08393430  1.82700000  1.80181000  1
  Mo  Mo4  1  3.61445000  0.04763470  -0.02658900  1
  Mo  Mo5  1  5.57971000  1.75320000  3.69247000  1
  Mo  Mo6  1  5.49297000  7.24492000  1.67978000  1
  Mo  Mo7  1  3.62939000  1.77538000  1.85329000  1
  Mo  Mo8  1  7.18834000  3.67695000  0.01015420  1
  Mo  Mo9  1  1.89220000  5.55337000  3.59796000  1
  Mo  Mo10  1  1.81455000  3.68323000  1.89735000  1
  Mo  Mo11  1  0.01194050  5.53115000  1.77519000  1
  Mo  Mo12  1  3.66496000  3.60759000  3.66011000  1
  Mo  Mo13  1  5.39479000  5.44506000  3.64835000  1
  Mo  Mo14  1  5.43574000  3.61903000  1.85773000  1
  Mo  Mo15  1  3.55594000  5.33111000  1.85365000  1
