# generated using pymatgen
data_Mo
_symmetry_space_group_name_H-M   'P 1'
_cell_length_a   7.28336437
_cell_length_b   7.28336437
_cell_length_c   3.64168215
_cell_angle_alpha   90.00000000
_cell_angle_beta   90.00000000
_cell_angle_gamma   90.00000000
_symmetry_Int_Tables_number   1
_chemical_formula_structural   Mo
_chemical_formula_sum   Mo16
_cell_volume   193.18175713
_cell_formula_units_Z   16
loop_
 _symmetry_equiv_pos_site_id
 _symmetry_equiv_pos_as_xyz
  1  'x, y, z'
loop_
 _atom_site_type_symbol
 _atom_site_label
 _atom_site_symmetry_multiplicity
 _atom_site_fract_x
 _atom_site_fract_y
 _atom_site_fract_z
 _atom_site_occupancy
  Mo  Mo0  1  -0.09162860  0.05346660  0.01814570  1
  Mo  Mo1  1  1.82815000  1.74900000  0.05562810  1
  Mo  Mo2  1  1.79754000  7.22034000  1.79094000  1
  Mo  Mo3  1  0.05508230  1.82727000  1.92560000  1
  Mo  Mo4  1  3.54226000  0.00126771  -0.10273400  1
  Mo  Mo5  1  5.49466000  1.76852000  3.73576000  1
  Mo  Mo6  1  5.48495000  7.28850000  1.75797000  1
  Mo  Mo7  1  3.58851000  1.83588000  1.84586000  1
  Mo  Mo8  1  7.27869000  3.72732000  0.04838630  1
  Mo  Mo9  1  1.87879000  5.44636000  3.59864000  1
  Mo  Mo10  1  1.77629000  3.64052000  1.78558000  1
  Mo  Mo11  1  0.05381460  5.59828000  1.78145000  1
  Mo  Mo12  1  3.70186000  3.61461000  3.62890000  1
  Mo  Mo13  1  5.47652000  5.42564000  3.60555000  1
  Mo  Mo14  1  5.44827000  3.63406000  1.85545000  1
  Mo  Mo15  1  3.62687000  5.39294000  1.78086000  1
