# generated using pymatgen
data_Mo
_symmetry_space_group_name_H-M   'P 1'
_cell_length_a   7.28336437
_cell_length_b   7.28336437
_cell_length_c   3.64168215
_cell_angle_alpha   90.00000000
_cell_angle_beta   90.00000000
_cell_angle_gamma   90.00000000
_symmetry_Int_Tables_number   1
_chemical_formula_structural   Mo
_chemical_formula_sum   Mo16
_cell_volume   193.18175713
_cell_formula_units_Z   16
loop_
 _symmetry_equiv_pos_site_id
 _symmetry_equiv_pos_as_xyz
  1  'x, y, z'
loop_
 _atom_site_type_symbol
 _atom_site_label
 _atom_site_symmetry_multiplicity
 _atom_site_fract_x
 _atom_site_fract_y
 _atom_site_fract_z
 _atom_site_occupancy
  Mo  Mo0  1  -0.03530080  -0.11579400  -0.01439110  1
  Mo  Mo1  1  1.66663000  1.80416000  -0.02719370  1
  Mo  Mo2  1  1.77558000  7.29152000  1.81656000  1
  Mo  Mo3  1  -0.00918888  1.80533000  1.84578000  1
  Mo  Mo4  1  3.65286000  0.04602850  -0.05585360  1
  Mo  Mo5  1  5.47103000  1.79975000  3.61427000  1
  Mo  Mo6  1  5.47306000  7.25518000  1.84649000  1
  Mo  Mo7  1  3.59212000  1.78263000  1.81097000  1
  Mo  Mo8  1  7.26912000  3.71363000  0.05229390  1
  Mo  Mo9  1  1.77968000  5.53520000  3.61080000  1
  Mo  Mo10  1  1.93805000  3.61418000  1.91438000  1
  Mo  Mo11  1  0.06706890  5.42983000  1.78592000  1
  Mo  Mo12  1  3.70489000  3.60853000  3.64690000  1
  Mo  Mo13  1  5.44981000  5.50620000  3.62927000  1
  Mo  Mo14  1  5.46529000  3.66588000  1.87060000  1
  Mo  Mo15  1  3.67994000  5.48175000  1.76519000  1
