# generated using pymatgen
data_Mo
_symmetry_space_group_name_H-M   'P 1'
_cell_length_a   7.28336437
_cell_length_b   7.28336437
_cell_length_c   3.64168215
_cell_angle_alpha   90.00000000
_cell_angle_beta   90.00000000
_cell_angle_gamma   90.00000000
_symmetry_Int_Tables_number   1
_chemical_formula_structural   Mo
_chemical_formula_sum   Mo16
_cell_volume   193.18175713
_cell_formula_units_Z   16
loop_
 _symmetry_equiv_pos_site_id
 _symmetry_equiv_pos_as_xyz
  1  'x, y, z'
loop_
 _atom_site_type_symbol
 _atom_site_label
 _atom_site_symmetry_multiplicity
 _atom_site_fract_x
 _atom_site_fract_y
 _atom_site_fract_z
 _atom_site_occupancy
  Mo  Mo0  1  0.10418000  0.14815100  0.03468470  1
  Mo  Mo1  1  1.79601000  1.69359000  -0.02146570  1
  Mo  Mo2  1  1.77510000  7.27522000  1.79945000  1
  Mo  Mo3  1  -0.04315300  1.89773000  1.81231000  1
  Mo  Mo4  1  3.67198000  -0.10877000  -0.00501266  1
  Mo  Mo5  1  5.43460000  1.81118000  3.66460000  1
  Mo  Mo6  1  5.45307000  7.26399000  1.82632000  1
  Mo  Mo7  1  3.69109000  1.79997000  1.86892000  1
  Mo  Mo8  1  7.32068000  3.66929000  0.01713370  1
  Mo  Mo9  1  1.80285000  5.44792000  3.65031000  1
  Mo  Mo10  1  1.78023000  3.64709000  1.72514000  1
  Mo  Mo11  1  -0.08795390  5.48632000  1.82142000  1
  Mo  Mo12  1  3.59049000  3.65315000  3.56261000  1
  Mo  Mo13  1  5.47973000  5.42986000  3.62613000  1
  Mo  Mo14  1  5.50830000  3.63225000  1.81823000  1
  Mo  Mo15  1  3.66345000  5.47705000  1.91122000  1
