# generated using pymatgen
data_Mo
_symmetry_space_group_name_H-M   'P 1'
_cell_length_a   7.28336437
_cell_length_b   7.28336437
_cell_length_c   3.64168215
_cell_angle_alpha   90.00000000
_cell_angle_beta   90.00000000
_cell_angle_gamma   90.00000000
_symmetry_Int_Tables_number   1
_chemical_formula_structural   Mo
_chemical_formula_sum   Mo16
_cell_volume   193.18175713
_cell_formula_units_Z   16
loop_
 _symmetry_equiv_pos_site_id
 _symmetry_equiv_pos_as_xyz
  1  'x, y, z'
loop_
 _atom_site_type_symbol
 _atom_site_label
 _atom_site_symmetry_multiplicity
 _atom_site_fract_x
 _atom_site_fract_y
 _atom_site_fract_z
 _atom_site_occupancy
  Mo  Mo0  1  0.04383730  -0.00420537  -0.00489672  1
  Mo  Mo1  1  1.84897000  1.79913000  0.01435650  1
  Mo  Mo2  1  1.88840000  7.36589000  1.78867000  1
  Mo  Mo3  1  -0.05791610  1.81192000  1.80851000  1
  Mo  Mo4  1  3.65290000  -0.04443630  0.03517980  1
  Mo  Mo5  1  5.44834000  1.78209000  3.75154000  1
  Mo  Mo6  1  5.48808000  7.37945000  1.76501000  1
  Mo  Mo7  1  3.58465000  1.71130000  1.88225000  1
  Mo  Mo8  1  7.27938000  3.51161000  -0.03855970  1
  Mo  Mo9  1  1.78999000  5.54261000  3.52569000  1
  Mo  Mo10  1  1.78856000  3.65794000  1.86125000  1
  Mo  Mo11  1  -0.02122040  5.47110000  1.74651000  1
  Mo  Mo12  1  3.52505000  3.72177000  3.63474000  1
  Mo  Mo13  1  5.59632000  5.47016000  3.69433000  1
  Mo  Mo14  1  5.35780000  3.64430000  1.82287000  1
  Mo  Mo15  1  3.72751000  5.40338000  1.82456000  1
