# generated using pymatgen
data_Mo
_symmetry_space_group_name_H-M   'P 1'
_cell_length_a   7.27806742
_cell_length_b   7.27806742
_cell_length_c   3.63903379
_cell_angle_alpha   90.00000000
_cell_angle_beta   90.00000000
_cell_angle_gamma   90.00000000
_symmetry_Int_Tables_number   1
_chemical_formula_structural   Mo
_chemical_formula_sum   Mo16
_cell_volume   192.76058556
_cell_formula_units_Z   16
loop_
 _symmetry_equiv_pos_site_id
 _symmetry_equiv_pos_as_xyz
  1  'x, y, z'
loop_
 _atom_site_type_symbol
 _atom_site_label
 _atom_site_symmetry_multiplicity
 _atom_site_fract_x
 _atom_site_fract_y
 _atom_site_fract_z
 _atom_site_occupancy
  Mo  Mo0  1  0.00103166  7.26864000  3.65505000  1
  Mo  Mo1  1  1.81185000  1.80281000  -0.02608960  1
  Mo  Mo2  1  1.82088000  7.30007000  1.82566000  1
  Mo  Mo3  1  7.29195000  1.80842000  1.80060000  1
  Mo  Mo4  1  3.62902000  7.28654000  0.02495470  1
  Mo  Mo5  1  5.47784000  1.81862000  0.04252750  1
  Mo  Mo6  1  5.45386000  0.00596317  1.82657000  1
  Mo  Mo7  1  3.65504000  1.83044000  1.84614000  1
  Mo  Mo8  1  7.28620000  3.65270000  3.62413000  1
  Mo  Mo9  1  1.81304000  5.45576000  3.62967000  1
  Mo  Mo10  1  1.82026000  3.63385000  1.83821000  1
  Mo  Mo11  1  -0.01952540  5.45276000  1.78066000  1
  Mo  Mo12  1  3.62595000  3.64378000  3.62519000  1
  Mo  Mo13  1  5.49465000  5.45247000  3.64762000  1
  Mo  Mo14  1  5.42188000  3.63662000  1.79961000  1
  Mo  Mo15  1  3.64009000  5.45263000  1.81052000  1
