# generated using pymatgen
data_Mo
_symmetry_space_group_name_H-M   'P 1'
_cell_length_a   7.28336437
_cell_length_b   7.28336437
_cell_length_c   3.64168215
_cell_angle_alpha   90.00000000
_cell_angle_beta   90.00000000
_cell_angle_gamma   90.00000000
_symmetry_Int_Tables_number   1
_chemical_formula_structural   Mo
_chemical_formula_sum   Mo16
_cell_volume   193.18175713
_cell_formula_units_Z   16
loop_
 _symmetry_equiv_pos_site_id
 _symmetry_equiv_pos_as_xyz
  1  'x, y, z'
loop_
 _atom_site_type_symbol
 _atom_site_label
 _atom_site_symmetry_multiplicity
 _atom_site_fract_x
 _atom_site_fract_y
 _atom_site_fract_z
 _atom_site_occupancy
  Mo  Mo0  1  0.03343100  -0.01348790  -0.04712120  1
  Mo  Mo1  1  1.81188000  1.73198000  0.06785250  1
  Mo  Mo2  1  1.69655000  7.29314000  1.72787000  1
  Mo  Mo3  1  -0.05388410  1.78428000  1.83601000  1
  Mo  Mo4  1  3.60794000  0.04483970  -0.07254820  1
  Mo  Mo5  1  5.39188000  1.77595000  3.64067000  1
  Mo  Mo6  1  5.40700000  7.30209000  1.77618000  1
  Mo  Mo7  1  3.65187000  1.94717000  1.88411000  1
  Mo  Mo8  1  7.38346000  3.68477000  0.06464370  1
  Mo  Mo9  1  1.82930000  5.41205000  3.61319000  1
  Mo  Mo10  1  1.89244000  3.62746000  1.82066000  1
  Mo  Mo11  1  -0.08341870  5.47447000  1.81428000  1
  Mo  Mo12  1  3.62896000  3.66598000  3.70597000  1
  Mo  Mo13  1  5.51225000  5.44906000  3.60693000  1
  Mo  Mo14  1  5.52922000  3.57319000  1.83634000  1
  Mo  Mo15  1  3.70177000  5.47105000  1.83697000  1
