# generated using pymatgen
data_Mo
_symmetry_space_group_name_H-M   'P 1'
_cell_length_a   7.28336437
_cell_length_b   7.28336437
_cell_length_c   3.64168215
_cell_angle_alpha   90.00000000
_cell_angle_beta   90.00000000
_cell_angle_gamma   90.00000000
_symmetry_Int_Tables_number   1
_chemical_formula_structural   Mo
_chemical_formula_sum   Mo16
_cell_volume   193.18175713
_cell_formula_units_Z   16
loop_
 _symmetry_equiv_pos_site_id
 _symmetry_equiv_pos_as_xyz
  1  'x, y, z'
loop_
 _atom_site_type_symbol
 _atom_site_label
 _atom_site_symmetry_multiplicity
 _atom_site_fract_x
 _atom_site_fract_y
 _atom_site_fract_z
 _atom_site_occupancy
  Mo  Mo0  1  0.01193010  -0.07303230  -0.04258680  1
  Mo  Mo1  1  1.67724000  1.86686000  0.01110660  1
  Mo  Mo2  1  1.90388000  7.34232000  1.82167000  1
  Mo  Mo3  1  -0.01175220  1.73415000  1.82311000  1
  Mo  Mo4  1  3.61849000  0.06308680  0.02699320  1
  Mo  Mo5  1  5.49568000  1.85411000  3.69265000  1
  Mo  Mo6  1  5.47192000  7.26248000  1.94059000  1
  Mo  Mo7  1  3.63034000  1.75900000  1.84093000  1
  Mo  Mo8  1  7.31571000  3.65967000  -0.07516320  1
  Mo  Mo9  1  1.93203000  5.48738000  3.64574000  1
  Mo  Mo10  1  1.73575000  3.59651000  1.71596000  1
  Mo  Mo11  1  0.02405770  5.53261000  1.81024000  1
  Mo  Mo12  1  3.58142000  3.55881000  3.65198000  1
  Mo  Mo13  1  5.50406000  5.46877000  3.64733000  1
  Mo  Mo14  1  5.33780000  3.63819000  1.78329000  1
  Mo  Mo15  1  3.71208000  5.47309000  1.81816000  1
