# generated using pymatgen
data_Mo
_symmetry_space_group_name_H-M   'P 1'
_cell_length_a   7.28336437
_cell_length_b   7.28336437
_cell_length_c   3.64168215
_cell_angle_alpha   90.00000000
_cell_angle_beta   90.00000000
_cell_angle_gamma   90.00000000
_symmetry_Int_Tables_number   1
_chemical_formula_structural   Mo
_chemical_formula_sum   Mo16
_cell_volume   193.18175713
_cell_formula_units_Z   16
loop_
 _symmetry_equiv_pos_site_id
 _symmetry_equiv_pos_as_xyz
  1  'x, y, z'
loop_
 _atom_site_type_symbol
 _atom_site_label
 _atom_site_symmetry_multiplicity
 _atom_site_fract_x
 _atom_site_fract_y
 _atom_site_fract_z
 _atom_site_occupancy
  Mo  Mo0  1  -0.11645300  0.03704380  0.01574730  1
  Mo  Mo1  1  1.87917000  1.88077000  0.01691650  1
  Mo  Mo2  1  1.85362000  7.33766000  1.85491000  1
  Mo  Mo3  1  -0.02945530  1.89361000  1.85366000  1
  Mo  Mo4  1  3.67995000  -0.09504660  0.01492210  1
  Mo  Mo5  1  5.41195000  1.76152000  3.76528000  1
  Mo  Mo6  1  5.45194000  7.26379000  1.83564000  1
  Mo  Mo7  1  3.63316000  1.78509000  1.86825000  1
  Mo  Mo8  1  7.27191000  3.64471000  -0.01418700  1
  Mo  Mo9  1  1.76458000  5.44511000  3.56598000  1
  Mo  Mo10  1  1.75147000  3.56448000  1.77771000  1
  Mo  Mo11  1  0.12821500  5.53290000  1.76858000  1
  Mo  Mo12  1  3.72011000  3.66260000  3.56067000  1
  Mo  Mo13  1  5.50693000  5.46279000  3.61212000  1
  Mo  Mo14  1  5.40298000  3.64856000  1.75679000  1
  Mo  Mo15  1  3.63056000  5.39839000  1.85902000  1
