# generated using pymatgen
data_Mo
_symmetry_space_group_name_H-M   'P 1'
_cell_length_a   7.28336437
_cell_length_b   7.28336437
_cell_length_c   3.64168215
_cell_angle_alpha   90.00000000
_cell_angle_beta   90.00000000
_cell_angle_gamma   90.00000000
_symmetry_Int_Tables_number   1
_chemical_formula_structural   Mo
_chemical_formula_sum   Mo16
_cell_volume   193.18175713
_cell_formula_units_Z   16
loop_
 _symmetry_equiv_pos_site_id
 _symmetry_equiv_pos_as_xyz
  1  'x, y, z'
loop_
 _atom_site_type_symbol
 _atom_site_label
 _atom_site_symmetry_multiplicity
 _atom_site_fract_x
 _atom_site_fract_y
 _atom_site_fract_z
 _atom_site_occupancy
  Mo  Mo0  1  -0.05576830  0.05602490  -0.06213860  1
  Mo  Mo1  1  1.89418000  1.83843000  -0.03128060  1
  Mo  Mo2  1  1.82089000  7.24731000  1.85557000  1
  Mo  Mo3  1  -0.05721110  1.73018000  1.83399000  1
  Mo  Mo4  1  3.57989000  -0.02004810  0.02998940  1
  Mo  Mo5  1  5.43676000  1.88180000  3.63940000  1
  Mo  Mo6  1  5.40695000  7.33664000  1.93273000  1
  Mo  Mo7  1  3.64762000  1.86690000  1.76299000  1
  Mo  Mo8  1  7.30147000  3.58605000  -0.01469400  1
  Mo  Mo9  1  1.78628000  5.38187000  3.69482000  1
  Mo  Mo10  1  1.86021000  3.59853000  1.78758000  1
  Mo  Mo11  1  0.01656580  5.44088000  1.80615000  1
  Mo  Mo12  1  3.64633000  3.64851000  3.68223000  1
  Mo  Mo13  1  5.48823000  5.45569000  3.64168000  1
  Mo  Mo14  1  5.51131000  3.69102000  1.80192000  1
  Mo  Mo15  1  3.65692000  5.48422000  1.75106000  1
