# generated using pymatgen
data_Mo
_symmetry_space_group_name_H-M   'P 1'
_cell_length_a   7.28336437
_cell_length_b   7.28336437
_cell_length_c   3.64168215
_cell_angle_alpha   90.00000000
_cell_angle_beta   90.00000000
_cell_angle_gamma   90.00000000
_symmetry_Int_Tables_number   1
_chemical_formula_structural   Mo
_chemical_formula_sum   Mo16
_cell_volume   193.18175713
_cell_formula_units_Z   16
loop_
 _symmetry_equiv_pos_site_id
 _symmetry_equiv_pos_as_xyz
  1  'x, y, z'
loop_
 _atom_site_type_symbol
 _atom_site_label
 _atom_site_symmetry_multiplicity
 _atom_site_fract_x
 _atom_site_fract_y
 _atom_site_fract_z
 _atom_site_occupancy
  Mo  Mo0  1  0.00787759  -0.16366800  -0.02416160  1
  Mo  Mo1  1  1.76491000  1.86707000  -0.05439870  1
  Mo  Mo2  1  1.82629000  7.31336000  1.82909000  1
  Mo  Mo3  1  0.01459910  1.78474000  1.71453000  1
  Mo  Mo4  1  3.66651000  0.05966190  0.04702360  1
  Mo  Mo5  1  5.54335000  1.91511000  3.60038000  1
  Mo  Mo6  1  5.45520000  7.37066000  1.76134000  1
  Mo  Mo7  1  3.57760000  1.76089000  1.79456000  1
  Mo  Mo8  1  7.24427000  3.63962000  0.02950050  1
  Mo  Mo9  1  1.82965000  5.54289000  3.67453000  1
  Mo  Mo10  1  1.90351000  3.67711000  1.89674000  1
  Mo  Mo11  1  -0.05318990  5.34680000  1.83060000  1
  Mo  Mo12  1  3.65719000  3.61822000  3.65987000  1
  Mo  Mo13  1  5.39365000  5.41351000  3.66134000  1
  Mo  Mo14  1  5.44923000  3.59556000  1.82202000  1
  Mo  Mo15  1  3.65998000  5.48246000  1.86905000  1
