# generated using pymatgen
data_Mo
_symmetry_space_group_name_H-M   'P 1'
_cell_length_a   7.28336437
_cell_length_b   7.28336437
_cell_length_c   3.64168215
_cell_angle_alpha   90.00000000
_cell_angle_beta   90.00000000
_cell_angle_gamma   90.00000000
_symmetry_Int_Tables_number   1
_chemical_formula_structural   Mo
_chemical_formula_sum   Mo16
_cell_volume   193.18175713
_cell_formula_units_Z   16
loop_
 _symmetry_equiv_pos_site_id
 _symmetry_equiv_pos_as_xyz
  1  'x, y, z'
loop_
 _atom_site_type_symbol
 _atom_site_label
 _atom_site_symmetry_multiplicity
 _atom_site_fract_x
 _atom_site_fract_y
 _atom_site_fract_z
 _atom_site_occupancy
  Mo  Mo0  1  0.08503710  -0.03485300  0.03120330  1
  Mo  Mo1  1  1.73017000  1.77541000  0.03749320  1
  Mo  Mo2  1  1.78101000  7.29963000  1.80281000  1
  Mo  Mo3  1  -0.12205700  1.74839000  1.85551000  1
  Mo  Mo4  1  3.61412000  -0.02417460  -0.02572760  1
  Mo  Mo5  1  5.48852000  1.85444000  3.57778000  1
  Mo  Mo6  1  5.48000000  7.29061000  1.85221000  1
  Mo  Mo7  1  3.60142000  1.88706000  1.81861000  1
  Mo  Mo8  1  7.28630000  3.74384000  0.04843020  1
  Mo  Mo9  1  1.85741000  5.36649000  3.65486000  1
  Mo  Mo10  1  1.87096000  3.53985000  1.73872000  1
  Mo  Mo11  1  -0.03530480  5.46231000  1.87747000  1
  Mo  Mo12  1  3.66117000  3.66107000  3.67518000  1
  Mo  Mo13  1  5.55074000  5.46149000  3.60860000  1
  Mo  Mo14  1  5.44182000  3.64728000  1.80870000  1
  Mo  Mo15  1  3.64934000  5.54516000  1.75016000  1
