# generated using pymatgen
data_Mo
_symmetry_space_group_name_H-M   'P 1'
_cell_length_a   7.28336437
_cell_length_b   7.28336437
_cell_length_c   3.64168215
_cell_angle_alpha   90.00000000
_cell_angle_beta   90.00000000
_cell_angle_gamma   90.00000000
_symmetry_Int_Tables_number   1
_chemical_formula_structural   Mo
_chemical_formula_sum   Mo16
_cell_volume   193.18175713
_cell_formula_units_Z   16
loop_
 _symmetry_equiv_pos_site_id
 _symmetry_equiv_pos_as_xyz
  1  'x, y, z'
loop_
 _atom_site_type_symbol
 _atom_site_label
 _atom_site_symmetry_multiplicity
 _atom_site_fract_x
 _atom_site_fract_y
 _atom_site_fract_z
 _atom_site_occupancy
  Mo  Mo0  1  0.03622320  0.01461960  -0.02611430  1
  Mo  Mo1  1  1.76647000  1.76533000  0.01071980  1
  Mo  Mo2  1  1.82238000  7.20643000  1.81807000  1
  Mo  Mo3  1  -0.02062580  1.93239000  1.82070000  1
  Mo  Mo4  1  3.62223000  -0.03423060  -0.03487230  1
  Mo  Mo5  1  5.55753000  1.76809000  3.63717000  1
  Mo  Mo6  1  5.48253000  7.30910000  1.91591000  1
  Mo  Mo7  1  3.65334000  1.83654000  1.86557000  1
  Mo  Mo8  1  7.31754000  3.78947000  0.03094870  1
  Mo  Mo9  1  1.91962000  5.42790000  3.65020000  1
  Mo  Mo10  1  1.77105000  3.65005000  1.76028000  1
  Mo  Mo11  1  -0.05814660  5.46510000  1.76210000  1
  Mo  Mo12  1  3.54009000  3.52621000  3.64190000  1
  Mo  Mo13  1  5.40445000  5.48318000  3.61603000  1
  Mo  Mo14  1  5.45251000  3.58833000  1.78145000  1
  Mo  Mo15  1  3.67343000  5.49549000  1.86195000  1
