# generated using pymatgen
data_Mo
_symmetry_space_group_name_H-M   'P 1'
_cell_length_a   7.27806742
_cell_length_b   7.27806742
_cell_length_c   3.63903379
_cell_angle_alpha   90.00000000
_cell_angle_beta   90.00000000
_cell_angle_gamma   90.00000000
_symmetry_Int_Tables_number   1
_chemical_formula_structural   Mo
_chemical_formula_sum   Mo16
_cell_volume   192.76058556
_cell_formula_units_Z   16
loop_
 _symmetry_equiv_pos_site_id
 _symmetry_equiv_pos_as_xyz
  1  'x, y, z'
loop_
 _atom_site_type_symbol
 _atom_site_label
 _atom_site_symmetry_multiplicity
 _atom_site_fract_x
 _atom_site_fract_y
 _atom_site_fract_z
 _atom_site_occupancy
  Mo  Mo0  1  -0.01047080  7.27637000  3.60637000  1
  Mo  Mo1  1  1.84954000  1.82323000  0.01695200  1
  Mo  Mo2  1  1.78931000  7.26014000  1.82056000  1
  Mo  Mo3  1  7.27548000  1.80994000  1.83400000  1
  Mo  Mo4  1  3.63392000  7.29069000  0.02195010  1
  Mo  Mo5  1  5.45988000  1.81660000  0.01632270  1
  Mo  Mo6  1  5.46004000  0.00081913  1.86709000  1
  Mo  Mo7  1  3.63214000  1.82346000  1.81678000  1
  Mo  Mo8  1  7.26873000  3.63784000  3.61248000  1
  Mo  Mo9  1  1.84174000  5.46367000  3.63301000  1
  Mo  Mo10  1  1.81062000  3.63543000  1.79268000  1
  Mo  Mo11  1  0.01982170  5.46563000  1.80742000  1
  Mo  Mo12  1  3.65611000  3.63936000  3.65769000  1
  Mo  Mo13  1  5.44699000  5.44854000  3.62456000  1
  Mo  Mo14  1  5.45703000  3.65290000  1.81356000  1
  Mo  Mo15  1  3.63311000  5.45745000  1.80963000  1
