# generated using pymatgen
data_Mo
_symmetry_space_group_name_H-M   'P 1'
_cell_length_a   7.28336437
_cell_length_b   7.28336437
_cell_length_c   3.64168215
_cell_angle_alpha   90.00000000
_cell_angle_beta   90.00000000
_cell_angle_gamma   90.00000000
_symmetry_Int_Tables_number   1
_chemical_formula_structural   Mo
_chemical_formula_sum   Mo16
_cell_volume   193.18175713
_cell_formula_units_Z   16
loop_
 _symmetry_equiv_pos_site_id
 _symmetry_equiv_pos_as_xyz
  1  'x, y, z'
loop_
 _atom_site_type_symbol
 _atom_site_label
 _atom_site_symmetry_multiplicity
 _atom_site_fract_x
 _atom_site_fract_y
 _atom_site_fract_z
 _atom_site_occupancy
  Mo  Mo0  1  -0.18418800  -0.11817800  -0.04520160  1
  Mo  Mo1  1  1.80328000  1.91451000  0.01109260  1
  Mo  Mo2  1  1.81125000  7.24739000  1.84944000  1
  Mo  Mo3  1  0.03499210  1.74254000  1.84134000  1
  Mo  Mo4  1  3.61809000  0.14413100  -0.01033850  1
  Mo  Mo5  1  5.47848000  1.84936000  3.65291000  1
  Mo  Mo6  1  5.42172000  7.33533000  1.71139000  1
  Mo  Mo7  1  3.55256000  1.78356000  1.82110000  1
  Mo  Mo8  1  7.31980000  3.54130000  -0.00383470  1
  Mo  Mo9  1  1.84319000  5.48282000  3.61728000  1
  Mo  Mo10  1  1.86525000  3.71411000  1.89867000  1
  Mo  Mo11  1  0.08623620  5.38451000  1.80163000  1
  Mo  Mo12  1  3.70425000  3.62742000  3.67763000  1
  Mo  Mo13  1  5.45569000  5.44144000  3.63162000  1
  Mo  Mo14  1  5.48513000  3.64188000  1.90641000  1
  Mo  Mo15  1  3.64489000  5.49186000  1.75087000  1
