# generated using pymatgen
data_Mo
_symmetry_space_group_name_H-M   'P 1'
_cell_length_a   7.28336437
_cell_length_b   7.28336437
_cell_length_c   3.64168215
_cell_angle_alpha   90.00000000
_cell_angle_beta   90.00000000
_cell_angle_gamma   90.00000000
_symmetry_Int_Tables_number   1
_chemical_formula_structural   Mo
_chemical_formula_sum   Mo16
_cell_volume   193.18175713
_cell_formula_units_Z   16
loop_
 _symmetry_equiv_pos_site_id
 _symmetry_equiv_pos_as_xyz
  1  'x, y, z'
loop_
 _atom_site_type_symbol
 _atom_site_label
 _atom_site_symmetry_multiplicity
 _atom_site_fract_x
 _atom_site_fract_y
 _atom_site_fract_z
 _atom_site_occupancy
  Mo  Mo0  1  -0.01568000  -0.09131280  0.08052470  1
  Mo  Mo1  1  1.73692000  1.84453000  -0.03287870  1
  Mo  Mo2  1  1.90829000  7.28625000  1.78881000  1
  Mo  Mo3  1  0.03905180  1.90406000  1.82492000  1
  Mo  Mo4  1  3.71022000  0.00704956  -0.01690370  1
  Mo  Mo5  1  5.48593000  1.78289000  3.67482000  1
  Mo  Mo6  1  5.49790000  7.31838000  1.80171000  1
  Mo  Mo7  1  3.60050000  1.76837000  1.83248000  1
  Mo  Mo8  1  7.18257000  3.71512000  -0.01038870  1
  Mo  Mo9  1  1.82691000  5.46485000  3.60719000  1
  Mo  Mo10  1  1.68193000  3.64397000  1.87745000  1
  Mo  Mo11  1  0.08082940  5.48173000  1.86571000  1
  Mo  Mo12  1  3.62789000  3.62329000  3.53185000  1
  Mo  Mo13  1  5.51164000  5.50990000  3.65897000  1
  Mo  Mo14  1  5.45805000  3.59907000  1.77962000  1
  Mo  Mo15  1  3.60769000  5.36586000  1.84810000  1
