# generated using pymatgen
data_Mo
_symmetry_space_group_name_H-M   'P 1'
_cell_length_a   7.28336437
_cell_length_b   7.28336437
_cell_length_c   3.64168215
_cell_angle_alpha   90.00000000
_cell_angle_beta   90.00000000
_cell_angle_gamma   90.00000000
_symmetry_Int_Tables_number   1
_chemical_formula_structural   Mo
_chemical_formula_sum   Mo16
_cell_volume   193.18175713
_cell_formula_units_Z   16
loop_
 _symmetry_equiv_pos_site_id
 _symmetry_equiv_pos_as_xyz
  1  'x, y, z'
loop_
 _atom_site_type_symbol
 _atom_site_label
 _atom_site_symmetry_multiplicity
 _atom_site_fract_x
 _atom_site_fract_y
 _atom_site_fract_z
 _atom_site_occupancy
  Mo  Mo0  1  0.10860600  -0.06916180  0.06077210  1
  Mo  Mo1  1  1.82406000  1.75049000  -0.02729110  1
  Mo  Mo2  1  1.81289000  7.23849000  1.86269000  1
  Mo  Mo3  1  0.01089400  1.86452000  1.77844000  1
  Mo  Mo4  1  3.64787000  0.01831500  -0.01575160  1
  Mo  Mo5  1  5.50928000  1.81200000  3.57694000  1
  Mo  Mo6  1  5.53622000  7.27740000  1.93413000  1
  Mo  Mo7  1  3.64452000  1.92826000  1.79537000  1
  Mo  Mo8  1  7.26556000  3.82009000  -0.00557566  1
  Mo  Mo9  1  1.90012000  5.46082000  3.67152000  1
  Mo  Mo10  1  1.83292000  3.65902000  1.67247000  1
  Mo  Mo11  1  -0.12450300  5.47324000  1.90323000  1
  Mo  Mo12  1  3.52092000  3.54167000  3.58313000  1
  Mo  Mo13  1  5.38920000  5.42031000  3.68863000  1
  Mo  Mo14  1  5.37087000  3.56198000  1.76605000  1
  Mo  Mo15  1  3.69120000  5.46655000  1.86725000  1
