# generated using pymatgen
data_Mo
_symmetry_space_group_name_H-M   'P 1'
_cell_length_a   7.28336437
_cell_length_b   7.28336437
_cell_length_c   3.64168215
_cell_angle_alpha   90.00000000
_cell_angle_beta   90.00000000
_cell_angle_gamma   90.00000000
_symmetry_Int_Tables_number   1
_chemical_formula_structural   Mo
_chemical_formula_sum   Mo16
_cell_volume   193.18175713
_cell_formula_units_Z   16
loop_
 _symmetry_equiv_pos_site_id
 _symmetry_equiv_pos_as_xyz
  1  'x, y, z'
loop_
 _atom_site_type_symbol
 _atom_site_label
 _atom_site_symmetry_multiplicity
 _atom_site_fract_x
 _atom_site_fract_y
 _atom_site_fract_z
 _atom_site_occupancy
  Mo  Mo0  1  -0.15185000  -0.03578410  -0.05925650  1
  Mo  Mo1  1  1.79882000  1.80720000  0.05343730  1
  Mo  Mo2  1  1.77502000  7.26196000  1.78127000  1
  Mo  Mo3  1  0.07697560  1.76615000  1.86111000  1
  Mo  Mo4  1  3.57859000  0.04993870  -0.05372940  1
  Mo  Mo5  1  5.52934000  1.89951000  3.56811000  1
  Mo  Mo6  1  5.42933000  7.25978000  1.85117000  1
  Mo  Mo7  1  3.69395000  1.80978000  1.76859000  1
  Mo  Mo8  1  7.34388000  3.75468000  0.03098400  1
  Mo  Mo9  1  1.84342000  5.39783000  3.73095000  1
  Mo  Mo10  1  1.87785000  3.67796000  1.80706000  1
  Mo  Mo11  1  -0.05730620  5.43331000  1.86621000  1
  Mo  Mo12  1  3.69909000  3.62784000  3.67681000  1
  Mo  Mo13  1  5.42702000  5.36058000  3.63329000  1
  Mo  Mo14  1  5.48868000  3.63956000  1.80221000  1
  Mo  Mo15  1  3.58784000  5.51372000  1.79380000  1
