# generated using pymatgen
data_Mo
_symmetry_space_group_name_H-M   'P 1'
_cell_length_a   7.28336437
_cell_length_b   7.28336437
_cell_length_c   3.64168215
_cell_angle_alpha   90.00000000
_cell_angle_beta   90.00000000
_cell_angle_gamma   90.00000000
_symmetry_Int_Tables_number   1
_chemical_formula_structural   Mo
_chemical_formula_sum   Mo16
_cell_volume   193.18175713
_cell_formula_units_Z   16
loop_
 _symmetry_equiv_pos_site_id
 _symmetry_equiv_pos_as_xyz
  1  'x, y, z'
loop_
 _atom_site_type_symbol
 _atom_site_label
 _atom_site_symmetry_multiplicity
 _atom_site_fract_x
 _atom_site_fract_y
 _atom_site_fract_z
 _atom_site_occupancy
  Mo  Mo0  1  0.13540700  -0.02410810  -0.05711790  1
  Mo  Mo1  1  1.79238000  1.82633000  -0.07749890  1
  Mo  Mo2  1  1.90519000  7.32257000  1.85875000  1
  Mo  Mo3  1  -0.04836100  1.73381000  1.78524000  1
  Mo  Mo4  1  3.66136000  0.03189920  0.06989170  1
  Mo  Mo5  1  5.41843000  1.85887000  3.56987000  1
  Mo  Mo6  1  5.34666000  7.25959000  1.78509000  1
  Mo  Mo7  1  3.69937000  1.88038000  1.72477000  1
  Mo  Mo8  1  7.27098000  3.56219000  -0.01823420  1
  Mo  Mo9  1  1.79123000  5.45234000  3.74832000  1
  Mo  Mo10  1  1.77531000  3.63109000  1.82669000  1
  Mo  Mo11  1  -0.06880930  5.37569000  1.80557000  1
  Mo  Mo12  1  3.59025000  3.65247000  3.69834000  1
  Mo  Mo13  1  5.44652000  5.49617000  3.63539000  1
  Mo  Mo14  1  5.57185000  3.66705000  1.86568000  1
  Mo  Mo15  1  3.65287000  5.49766000  1.89125000  1
