# generated using pymatgen
data_Mo
_symmetry_space_group_name_H-M   'P 1'
_cell_length_a   7.28336437
_cell_length_b   7.28336437
_cell_length_c   3.64168215
_cell_angle_alpha   90.00000000
_cell_angle_beta   90.00000000
_cell_angle_gamma   90.00000000
_symmetry_Int_Tables_number   1
_chemical_formula_structural   Mo
_chemical_formula_sum   Mo16
_cell_volume   193.18175713
_cell_formula_units_Z   16
loop_
 _symmetry_equiv_pos_site_id
 _symmetry_equiv_pos_as_xyz
  1  'x, y, z'
loop_
 _atom_site_type_symbol
 _atom_site_label
 _atom_site_symmetry_multiplicity
 _atom_site_fract_x
 _atom_site_fract_y
 _atom_site_fract_z
 _atom_site_occupancy
  Mo  Mo0  1  0.06041740  0.07642200  0.00513874  1
  Mo  Mo1  1  1.87511000  1.78858000  0.02337850  1
  Mo  Mo2  1  1.81859000  7.32898000  1.79787000  1
  Mo  Mo3  1  -0.06294570  1.78210000  1.80397000  1
  Mo  Mo4  1  3.63757000  -0.03968590  -0.01159900  1
  Mo  Mo5  1  5.33362000  1.77573000  3.64024000  1
  Mo  Mo6  1  5.40887000  7.16274000  1.69136000  1
  Mo  Mo7  1  3.64936000  1.91763000  1.87461000  1
  Mo  Mo8  1  7.31015000  3.50008000  0.03040810  1
  Mo  Mo9  1  1.81577000  5.52226000  3.65865000  1
  Mo  Mo10  1  1.86319000  3.64976000  1.83932000  1
  Mo  Mo11  1  -0.03639610  5.46493000  1.80028000  1
  Mo  Mo12  1  3.64052000  3.78516000  3.62393000  1
  Mo  Mo13  1  5.51927000  5.42461000  3.59778000  1
  Mo  Mo14  1  5.48081000  3.64287000  1.83344000  1
  Mo  Mo15  1  3.62671000  5.44186000  1.90324000  1
