# generated using pymatgen
data_Mo
_symmetry_space_group_name_H-M   'P 1'
_cell_length_a   7.28336437
_cell_length_b   7.28336437
_cell_length_c   3.64168215
_cell_angle_alpha   90.00000000
_cell_angle_beta   90.00000000
_cell_angle_gamma   90.00000000
_symmetry_Int_Tables_number   1
_chemical_formula_structural   Mo
_chemical_formula_sum   Mo16
_cell_volume   193.18175713
_cell_formula_units_Z   16
loop_
 _symmetry_equiv_pos_site_id
 _symmetry_equiv_pos_as_xyz
  1  'x, y, z'
loop_
 _atom_site_type_symbol
 _atom_site_label
 _atom_site_symmetry_multiplicity
 _atom_site_fract_x
 _atom_site_fract_y
 _atom_site_fract_z
 _atom_site_occupancy
  Mo  Mo0  1  0.03530710  0.02342570  0.04843070  1
  Mo  Mo1  1  1.90286000  1.78567000  0.02006560  1
  Mo  Mo2  1  1.74586000  7.28200000  1.85754000  1
  Mo  Mo3  1  -0.01368730  1.79418000  1.83209000  1
  Mo  Mo4  1  3.63042000  -0.04985130  0.02070760  1
  Mo  Mo5  1  5.40133000  1.82242000  3.53689000  1
  Mo  Mo6  1  5.44011000  7.30823000  1.84828000  1
  Mo  Mo7  1  3.70982000  1.84113000  1.79882000  1
  Mo  Mo8  1  7.31646000  3.60126000  -0.02720240  1
  Mo  Mo9  1  1.80142000  5.34975000  3.69298000  1
  Mo  Mo10  1  1.82340000  3.59055000  1.74248000  1
  Mo  Mo11  1  -0.04554720  5.45474000  1.88274000  1
  Mo  Mo12  1  3.68049000  3.71968000  3.58518000  1
  Mo  Mo13  1  5.50500000  5.48936000  3.63796000  1
  Mo  Mo14  1  5.39075000  3.65956000  1.71499000  1
  Mo  Mo15  1  3.61665000  5.55189000  1.92005000  1
