# generated using pymatgen
data_Mo
_symmetry_space_group_name_H-M   'P 1'
_cell_length_a   7.28336437
_cell_length_b   7.28336437
_cell_length_c   3.64168215
_cell_angle_alpha   90.00000000
_cell_angle_beta   90.00000000
_cell_angle_gamma   90.00000000
_symmetry_Int_Tables_number   1
_chemical_formula_structural   Mo
_chemical_formula_sum   Mo16
_cell_volume   193.18175713
_cell_formula_units_Z   16
loop_
 _symmetry_equiv_pos_site_id
 _symmetry_equiv_pos_as_xyz
  1  'x, y, z'
loop_
 _atom_site_type_symbol
 _atom_site_label
 _atom_site_symmetry_multiplicity
 _atom_site_fract_x
 _atom_site_fract_y
 _atom_site_fract_z
 _atom_site_occupancy
  Mo  Mo0  1  -0.01983290  0.09902060  -0.04323790  1
  Mo  Mo1  1  1.91530000  1.94245000  -0.00352134  1
  Mo  Mo2  1  1.87449000  7.31492000  1.81924000  1
  Mo  Mo3  1  0.00190984  1.93620000  1.80436000  1
  Mo  Mo4  1  3.62981000  -0.04768950  -0.00600911  1
  Mo  Mo5  1  5.42133000  1.77221000  3.68987000  1
  Mo  Mo6  1  5.52369000  7.19177000  1.78111000  1
  Mo  Mo7  1  3.65063000  1.76254000  1.84663000  1
  Mo  Mo8  1  7.18390000  3.49039000  -0.02900250  1
  Mo  Mo9  1  1.77714000  5.52443000  3.55928000  1
  Mo  Mo10  1  1.77213000  3.71447000  1.87234000  1
  Mo  Mo11  1  0.06880400  5.40966000  1.75676000  1
  Mo  Mo12  1  3.61093000  3.64640000  3.67205000  1
  Mo  Mo13  1  5.43648000  5.44148000  3.71792000  1
  Mo  Mo14  1  5.49422000  3.64627000  1.91635000  1
  Mo  Mo15  1  3.59969000  5.37948000  1.75786000  1
