# generated using pymatgen
data_Mo
_symmetry_space_group_name_H-M   'P 1'
_cell_length_a   7.28336437
_cell_length_b   7.28336437
_cell_length_c   3.64168215
_cell_angle_alpha   90.00000000
_cell_angle_beta   90.00000000
_cell_angle_gamma   90.00000000
_symmetry_Int_Tables_number   1
_chemical_formula_structural   Mo
_chemical_formula_sum   Mo16
_cell_volume   193.18175713
_cell_formula_units_Z   16
loop_
 _symmetry_equiv_pos_site_id
 _symmetry_equiv_pos_as_xyz
  1  'x, y, z'
loop_
 _atom_site_type_symbol
 _atom_site_label
 _atom_site_symmetry_multiplicity
 _atom_site_fract_x
 _atom_site_fract_y
 _atom_site_fract_z
 _atom_site_occupancy
  Mo  Mo0  1  -0.01856170  -0.00234282  -0.06809810  1
  Mo  Mo1  1  1.76892000  1.73709000  0.06334710  1
  Mo  Mo2  1  1.79137000  7.22371000  1.73482000  1
  Mo  Mo3  1  0.04795970  1.96282000  1.79672000  1
  Mo  Mo4  1  3.57410000  0.10511400  -0.06055930  1
  Mo  Mo5  1  5.46380000  1.82681000  3.58245000  1
  Mo  Mo6  1  5.42761000  7.20845000  1.82006000  1
  Mo  Mo7  1  3.65671000  1.86299000  1.85929000  1
  Mo  Mo8  1  7.33916000  3.68256000  0.01294870  1
  Mo  Mo9  1  1.91232000  5.47498000  3.68435000  1
  Mo  Mo10  1  1.79460000  3.66346000  1.89705000  1
  Mo  Mo11  1  -0.05809560  5.38615000  1.84329000  1
  Mo  Mo12  1  3.65416000  3.56849000  3.69916000  1
  Mo  Mo13  1  5.39864000  5.37538000  3.62777000  1
  Mo  Mo14  1  5.48793000  3.56549000  1.81088000  1
  Mo  Mo15  1  3.70003000  5.58285000  1.80853000  1
