# generated using pymatgen
data_Mo
_symmetry_space_group_name_H-M   'P 1'
_cell_length_a   7.27806742
_cell_length_b   7.27806742
_cell_length_c   3.63903379
_cell_angle_alpha   90.00000000
_cell_angle_beta   90.00000000
_cell_angle_gamma   90.00000000
_symmetry_Int_Tables_number   1
_chemical_formula_structural   Mo
_chemical_formula_sum   Mo16
_cell_volume   192.76058556
_cell_formula_units_Z   16
loop_
 _symmetry_equiv_pos_site_id
 _symmetry_equiv_pos_as_xyz
  1  'x, y, z'
loop_
 _atom_site_type_symbol
 _atom_site_label
 _atom_site_symmetry_multiplicity
 _atom_site_fract_x
 _atom_site_fract_y
 _atom_site_fract_z
 _atom_site_occupancy
  Mo  Mo0  1  -0.01613080  7.27308000  3.65785000  1
  Mo  Mo1  1  1.82105000  1.82668000  0.00409866  1
  Mo  Mo2  1  1.81635000  7.25746000  1.82953000  1
  Mo  Mo3  1  7.26996000  1.82315000  1.81846000  1
  Mo  Mo4  1  3.64699000  7.26609000  -0.00453730  1
  Mo  Mo5  1  5.44628000  1.83168000  0.00291607  1
  Mo  Mo6  1  5.47372000  0.00843515  1.85216000  1
  Mo  Mo7  1  3.63672000  1.81975000  1.84452000  1
  Mo  Mo8  1  7.27246000  3.63412000  3.61573000  1
  Mo  Mo9  1  1.82098000  5.49284000  3.62569000  1
  Mo  Mo10  1  1.82576000  3.64869000  1.78311000  1
  Mo  Mo11  1  0.02354980  5.45787000  1.80197000  1
  Mo  Mo12  1  3.65893000  3.63729000  3.64278000  1
  Mo  Mo13  1  5.43899000  5.44055000  3.61842000  1
  Mo  Mo14  1  5.46681000  3.63425000  1.82694000  1
  Mo  Mo15  1  3.62157000  5.45013000  1.83140000  1
