# generated using pymatgen
data_Mo
_symmetry_space_group_name_H-M   'P 1'
_cell_length_a   7.28336437
_cell_length_b   7.28336437
_cell_length_c   3.64168215
_cell_angle_alpha   90.00000000
_cell_angle_beta   90.00000000
_cell_angle_gamma   90.00000000
_symmetry_Int_Tables_number   1
_chemical_formula_structural   Mo
_chemical_formula_sum   Mo16
_cell_volume   193.18175713
_cell_formula_units_Z   16
loop_
 _symmetry_equiv_pos_site_id
 _symmetry_equiv_pos_as_xyz
  1  'x, y, z'
loop_
 _atom_site_type_symbol
 _atom_site_label
 _atom_site_symmetry_multiplicity
 _atom_site_fract_x
 _atom_site_fract_y
 _atom_site_fract_z
 _atom_site_occupancy
  Mo  Mo0  1  -0.05646490  -0.12416700  -0.08097490  1
  Mo  Mo1  1  1.77668000  1.84244000  0.02704200  1
  Mo  Mo2  1  1.71828000  7.34520000  1.79645000  1
  Mo  Mo3  1  -0.03935740  1.74925000  1.85644000  1
  Mo  Mo4  1  3.65706000  0.06053640  0.04244870  1
  Mo  Mo5  1  5.43330000  1.85085000  3.62795000  1
  Mo  Mo6  1  5.48046000  7.28183000  1.67474000  1
  Mo  Mo7  1  3.63416000  1.79417000  1.82678000  1
  Mo  Mo8  1  7.31493000  3.62805000  -0.00183038  1
  Mo  Mo9  1  1.80427000  5.50516000  3.62390000  1
  Mo  Mo10  1  1.94321000  3.61193000  1.91381000  1
  Mo  Mo11  1  0.01815680  5.47920000  1.82726000  1
  Mo  Mo12  1  3.66425000  3.63236000  3.68696000  1
  Mo  Mo13  1  5.49565000  5.47165000  3.58361000  1
  Mo  Mo14  1  5.48909000  3.62819000  1.88498000  1
  Mo  Mo15  1  3.60695000  5.46735000  1.82244000  1
