# generated using pymatgen
data_Mo
_symmetry_space_group_name_H-M   'P 1'
_cell_length_a   7.28336437
_cell_length_b   7.28336437
_cell_length_c   3.64168215
_cell_angle_alpha   90.00000000
_cell_angle_beta   90.00000000
_cell_angle_gamma   90.00000000
_symmetry_Int_Tables_number   1
_chemical_formula_structural   Mo
_chemical_formula_sum   Mo16
_cell_volume   193.18175713
_cell_formula_units_Z   16
loop_
 _symmetry_equiv_pos_site_id
 _symmetry_equiv_pos_as_xyz
  1  'x, y, z'
loop_
 _atom_site_type_symbol
 _atom_site_label
 _atom_site_symmetry_multiplicity
 _atom_site_fract_x
 _atom_site_fract_y
 _atom_site_fract_z
 _atom_site_occupancy
  Mo  Mo0  1  0.02637680  0.12692700  0.01956860  1
  Mo  Mo1  1  1.81855000  1.81706000  0.00356781  1
  Mo  Mo2  1  1.82127000  7.30348000  1.80695000  1
  Mo  Mo3  1  -0.08001350  1.88190000  1.95629000  1
  Mo  Mo4  1  3.60694000  -0.08768850  0.01811450  1
  Mo  Mo5  1  5.38136000  1.84064000  3.69387000  1
  Mo  Mo6  1  5.37486000  7.17848000  1.84929000  1
  Mo  Mo7  1  3.68779000  1.74711000  1.79337000  1
  Mo  Mo8  1  7.31286000  3.64205000  -0.01701810  1
  Mo  Mo9  1  1.82296000  5.44119000  3.62804000  1
  Mo  Mo10  1  1.85925000  3.64150000  1.75968000  1
  Mo  Mo11  1  -0.04872930  5.46593000  1.76674000  1
  Mo  Mo12  1  3.58027000  3.60309000  3.64186000  1
  Mo  Mo13  1  5.54729000  5.46654000  3.54802000  1
  Mo  Mo14  1  5.59116000  3.67838000  1.91207000  1
  Mo  Mo15  1  3.63845000  5.47740000  1.73159000  1
