# generated using pymatgen
data_Mo
_symmetry_space_group_name_H-M   'P 1'
_cell_length_a   7.28336437
_cell_length_b   7.28336437
_cell_length_c   3.64168215
_cell_angle_alpha   90.00000000
_cell_angle_beta   90.00000000
_cell_angle_gamma   90.00000000
_symmetry_Int_Tables_number   1
_chemical_formula_structural   Mo
_chemical_formula_sum   Mo16
_cell_volume   193.18175713
_cell_formula_units_Z   16
loop_
 _symmetry_equiv_pos_site_id
 _symmetry_equiv_pos_as_xyz
  1  'x, y, z'
loop_
 _atom_site_type_symbol
 _atom_site_label
 _atom_site_symmetry_multiplicity
 _atom_site_fract_x
 _atom_site_fract_y
 _atom_site_fract_z
 _atom_site_occupancy
  Mo  Mo0  1  0.07630640  -0.01532090  -0.04355270  1
  Mo  Mo1  1  1.77175000  1.89081000  0.04182070  1
  Mo  Mo2  1  1.91069000  7.29519000  1.84573000  1
  Mo  Mo3  1  -0.06481560  1.85194000  1.85982000  1
  Mo  Mo4  1  3.59686000  -0.00256258  -0.03530250  1
  Mo  Mo5  1  5.48706000  1.85930000  3.60500000  1
  Mo  Mo6  1  5.47201000  7.32739000  1.80313000  1
  Mo  Mo7  1  3.73333000  1.72547000  1.75979000  1
  Mo  Mo8  1  7.26174000  3.64282000  0.03918600  1
  Mo  Mo9  1  1.85409000  5.45205000  3.66999000  1
  Mo  Mo10  1  1.71685000  3.66647000  1.77789000  1
  Mo  Mo11  1  0.00680360  5.49661000  1.88036000  1
  Mo  Mo12  1  3.61908000  3.54362000  3.63596000  1
  Mo  Mo13  1  5.49740000  5.47424000  3.69047000  1
  Mo  Mo14  1  5.32061000  3.64151000  1.77649000  1
  Mo  Mo15  1  3.68088000  5.37445000  1.80521000  1
