# generated using pymatgen
data_Mo
_symmetry_space_group_name_H-M   'P 1'
_cell_length_a   7.28336437
_cell_length_b   7.28336437
_cell_length_c   3.64168215
_cell_angle_alpha   90.00000000
_cell_angle_beta   90.00000000
_cell_angle_gamma   90.00000000
_symmetry_Int_Tables_number   1
_chemical_formula_structural   Mo
_chemical_formula_sum   Mo16
_cell_volume   193.18175713
_cell_formula_units_Z   16
loop_
 _symmetry_equiv_pos_site_id
 _symmetry_equiv_pos_as_xyz
  1  'x, y, z'
loop_
 _atom_site_type_symbol
 _atom_site_label
 _atom_site_symmetry_multiplicity
 _atom_site_fract_x
 _atom_site_fract_y
 _atom_site_fract_z
 _atom_site_occupancy
  Mo  Mo0  1  -0.01436150  0.20134900  -0.06699990  1
  Mo  Mo1  1  1.80916000  1.78466000  -0.03495360  1
  Mo  Mo2  1  1.78264000  7.23361000  1.78331000  1
  Mo  Mo3  1  0.01924190  1.76251000  1.84921000  1
  Mo  Mo4  1  3.72207000  -0.06517440  -0.03183010  1
  Mo  Mo5  1  5.29873000  1.76805000  3.65677000  1
  Mo  Mo6  1  5.55438000  7.20142000  1.87309000  1
  Mo  Mo7  1  3.51564000  1.86112000  1.88208000  1
  Mo  Mo8  1  7.22317000  3.59596000  0.02528860  1
  Mo  Mo9  1  1.83330000  5.46931000  3.65782000  1
  Mo  Mo10  1  1.80318000  3.66530000  1.75651000  1
  Mo  Mo11  1  0.03205350  5.46089000  1.79097000  1
  Mo  Mo12  1  3.64212000  3.69998000  3.73091000  1
  Mo  Mo13  1  5.52409000  5.45298000  3.55472000  1
  Mo  Mo14  1  5.50813000  3.58040000  1.90821000  1
  Mo  Mo15  1  3.68707000  5.55162000  1.77689000  1
