# generated using pymatgen
data_Mo
_symmetry_space_group_name_H-M   'P 1'
_cell_length_a   7.28336437
_cell_length_b   7.28336437
_cell_length_c   3.64168215
_cell_angle_alpha   90.00000000
_cell_angle_beta   90.00000000
_cell_angle_gamma   90.00000000
_symmetry_Int_Tables_number   1
_chemical_formula_structural   Mo
_chemical_formula_sum   Mo16
_cell_volume   193.18175713
_cell_formula_units_Z   16
loop_
 _symmetry_equiv_pos_site_id
 _symmetry_equiv_pos_as_xyz
  1  'x, y, z'
loop_
 _atom_site_type_symbol
 _atom_site_label
 _atom_site_symmetry_multiplicity
 _atom_site_fract_x
 _atom_site_fract_y
 _atom_site_fract_z
 _atom_site_occupancy
  Mo  Mo0  1  0.05644440  -0.00155346  0.07626650  1
  Mo  Mo1  1  1.78631000  1.80575000  0.02848290  1
  Mo  Mo2  1  1.89315000  7.27589000  1.83330000  1
  Mo  Mo3  1  0.04654440  1.86718000  1.79627000  1
  Mo  Mo4  1  3.73365000  0.05950490  0.05199750  1
  Mo  Mo5  1  5.48080000  1.86007000  3.57478000  1
  Mo  Mo6  1  5.51352000  7.27477000  1.89716000  1
  Mo  Mo7  1  3.62835000  1.83592000  1.83803000  1
  Mo  Mo8  1  7.22004000  3.70532000  0.01880870  1
  Mo  Mo9  1  1.78328000  5.44174000  3.62739000  1
  Mo  Mo10  1  1.85491000  3.60844000  1.78280000  1
  Mo  Mo11  1  0.00424379  5.42767000  1.74638000  1
  Mo  Mo12  1  3.61996000  3.55319000  3.65395000  1
  Mo  Mo13  1  5.33030000  5.44576000  3.61397000  1
  Mo  Mo14  1  5.42946000  3.59131000  1.78402000  1
  Mo  Mo15  1  3.55965000  5.47303000  1.78840000  1
