# generated using pymatgen
data_Mo
_symmetry_space_group_name_H-M   'P 1'
_cell_length_a   7.28336437
_cell_length_b   7.28336437
_cell_length_c   3.64168215
_cell_angle_alpha   90.00000000
_cell_angle_beta   90.00000000
_cell_angle_gamma   90.00000000
_symmetry_Int_Tables_number   1
_chemical_formula_structural   Mo
_chemical_formula_sum   Mo16
_cell_volume   193.18175713
_cell_formula_units_Z   16
loop_
 _symmetry_equiv_pos_site_id
 _symmetry_equiv_pos_as_xyz
  1  'x, y, z'
loop_
 _atom_site_type_symbol
 _atom_site_label
 _atom_site_symmetry_multiplicity
 _atom_site_fract_x
 _atom_site_fract_y
 _atom_site_fract_z
 _atom_site_occupancy
  Mo  Mo0  1  -0.03778880  -0.13791600  0.05425730  1
  Mo  Mo1  1  1.81125000  1.74736000  -0.06979820  1
  Mo  Mo2  1  1.70578000  7.24311000  1.78861000  1
  Mo  Mo3  1  -0.03308150  1.84950000  1.76963000  1
  Mo  Mo4  1  3.64736000  0.08993700  -0.00896111  1
  Mo  Mo5  1  5.51377000  1.80199000  3.69447000  1
  Mo  Mo6  1  5.37834000  7.27543000  1.73841000  1
  Mo  Mo7  1  3.65984000  1.87994000  1.84013000  1
  Mo  Mo8  1  7.34685000  3.69022000  0.02655300  1
  Mo  Mo9  1  1.81171000  5.54980000  3.60290000  1
  Mo  Mo10  1  1.87721000  3.68666000  1.90418000  1
  Mo  Mo11  1  0.01007000  5.39320000  1.79469000  1
  Mo  Mo12  1  3.67913000  3.60472000  3.65246000  1
  Mo  Mo13  1  5.36152000  5.44890000  3.62225000  1
  Mo  Mo14  1  5.57747000  3.65104000  1.86235000  1
  Mo  Mo15  1  3.63120000  5.45011000  1.83987000  1
