# generated using pymatgen
data_Mo
_symmetry_space_group_name_H-M   'P 1'
_cell_length_a   7.28336437
_cell_length_b   7.28336437
_cell_length_c   3.64168215
_cell_angle_alpha   90.00000000
_cell_angle_beta   90.00000000
_cell_angle_gamma   90.00000000
_symmetry_Int_Tables_number   1
_chemical_formula_structural   Mo
_chemical_formula_sum   Mo16
_cell_volume   193.18175713
_cell_formula_units_Z   16
loop_
 _symmetry_equiv_pos_site_id
 _symmetry_equiv_pos_as_xyz
  1  'x, y, z'
loop_
 _atom_site_type_symbol
 _atom_site_label
 _atom_site_symmetry_multiplicity
 _atom_site_fract_x
 _atom_site_fract_y
 _atom_site_fract_z
 _atom_site_occupancy
  Mo  Mo0  1  -0.07064280  0.10119700  0.06939770  1
  Mo  Mo1  1  1.93353000  1.90690000  -0.00038394  1
  Mo  Mo2  1  1.85976000  7.25185000  1.83541000  1
  Mo  Mo3  1  -0.01140200  1.80363000  1.82149000  1
  Mo  Mo4  1  3.62962000  -0.09614450  -0.09112940  1
  Mo  Mo5  1  5.42013000  1.76744000  3.70690000  1
  Mo  Mo6  1  5.51535000  7.30062000  1.91207000  1
  Mo  Mo7  1  3.59161000  1.84029000  1.86371000  1
  Mo  Mo8  1  7.26105000  3.60225000  -0.00367251  1
  Mo  Mo9  1  1.73505000  5.39921000  3.58789000  1
  Mo  Mo10  1  1.78932000  3.61024000  1.85395000  1
  Mo  Mo11  1  0.09437010  5.51712000  1.74612000  1
  Mo  Mo12  1  3.68769000  3.65567000  3.58569000  1
  Mo  Mo13  1  5.54126000  5.50876000  3.64763000  1
  Mo  Mo14  1  5.37217000  3.71307000  1.78466000  1
  Mo  Mo15  1  3.59177000  5.34190000  1.79227000  1
