# generated using pymatgen
data_Mo
_symmetry_space_group_name_H-M   'P 1'
_cell_length_a   7.28336437
_cell_length_b   7.28336437
_cell_length_c   3.64168215
_cell_angle_alpha   90.00000000
_cell_angle_beta   90.00000000
_cell_angle_gamma   90.00000000
_symmetry_Int_Tables_number   1
_chemical_formula_structural   Mo
_chemical_formula_sum   Mo16
_cell_volume   193.18175713
_cell_formula_units_Z   16
loop_
 _symmetry_equiv_pos_site_id
 _symmetry_equiv_pos_as_xyz
  1  'x, y, z'
loop_
 _atom_site_type_symbol
 _atom_site_label
 _atom_site_symmetry_multiplicity
 _atom_site_fract_x
 _atom_site_fract_y
 _atom_site_fract_z
 _atom_site_occupancy
  Mo  Mo0  1  0.06766860  0.08549490  -0.03392750  1
  Mo  Mo1  1  1.82807000  1.77563000  0.02755090  1
  Mo  Mo2  1  1.68984000  7.26454000  1.73830000  1
  Mo  Mo3  1  0.00402703  1.75581000  1.87248000  1
  Mo  Mo4  1  3.58932000  -0.01477190  -0.01740600  1
  Mo  Mo5  1  5.39384000  1.82693000  3.55069000  1
  Mo  Mo6  1  5.50231000  7.21362000  1.84280000  1
  Mo  Mo7  1  3.68686000  1.83571000  1.78003000  1
  Mo  Mo8  1  7.30232000  3.59438000  0.06317060  1
  Mo  Mo9  1  1.79266000  5.44579000  3.63569000  1
  Mo  Mo10  1  1.94061000  3.71104000  1.86157000  1
  Mo  Mo11  1  -0.03297680  5.46168000  1.88142000  1
  Mo  Mo12  1  3.60314000  3.68857000  3.66258000  1
  Mo  Mo13  1  5.53558000  5.43938000  3.62266000  1
  Mo  Mo14  1  5.44529000  3.63406000  1.88432000  1
  Mo  Mo15  1  3.59208000  5.50613000  1.74008000  1
