# generated using pymatgen
data_Mo
_symmetry_space_group_name_H-M   'P 1'
_cell_length_a   7.28336437
_cell_length_b   7.28336437
_cell_length_c   3.64168215
_cell_angle_alpha   90.00000000
_cell_angle_beta   90.00000000
_cell_angle_gamma   90.00000000
_symmetry_Int_Tables_number   1
_chemical_formula_structural   Mo
_chemical_formula_sum   Mo16
_cell_volume   193.18175713
_cell_formula_units_Z   16
loop_
 _symmetry_equiv_pos_site_id
 _symmetry_equiv_pos_as_xyz
  1  'x, y, z'
loop_
 _atom_site_type_symbol
 _atom_site_label
 _atom_site_symmetry_multiplicity
 _atom_site_fract_x
 _atom_site_fract_y
 _atom_site_fract_z
 _atom_site_occupancy
  Mo  Mo0  1  0.00488847  -0.03597320  0.01078780  1
  Mo  Mo1  1  1.87849000  1.83545000  0.05221830  1
  Mo  Mo2  1  1.77874000  7.28167000  1.88486000  1
  Mo  Mo3  1  0.06205510  1.86433000  1.82999000  1
  Mo  Mo4  1  3.59617000  -0.00808356  0.01139690  1
  Mo  Mo5  1  5.54909000  1.86841000  3.66639000  1
  Mo  Mo6  1  5.45564000  7.34398000  1.80052000  1
  Mo  Mo7  1  3.70192000  1.80954000  1.81106000  1
  Mo  Mo8  1  7.31087000  3.61590000  -0.09178250  1
  Mo  Mo9  1  1.83672000  5.42345000  3.62216000  1
  Mo  Mo10  1  1.78977000  3.58916000  1.85237000  1
  Mo  Mo11  1  -0.06236710  5.49037000  1.85680000  1
  Mo  Mo12  1  3.60631000  3.59465000  3.54633000  1
  Mo  Mo13  1  5.43213000  5.46213000  3.64607000  1
  Mo  Mo14  1  5.35127000  3.68862000  1.74129000  1
  Mo  Mo15  1  3.64894000  5.40039000  1.87154000  1
