# generated using pymatgen
data_Mo
_symmetry_space_group_name_H-M   'P 1'
_cell_length_a   7.27806742
_cell_length_b   7.27806742
_cell_length_c   3.63903379
_cell_angle_alpha   90.00000000
_cell_angle_beta   90.00000000
_cell_angle_gamma   90.00000000
_symmetry_Int_Tables_number   1
_chemical_formula_structural   Mo
_chemical_formula_sum   Mo16
_cell_volume   192.76058556
_cell_formula_units_Z   16
loop_
 _symmetry_equiv_pos_site_id
 _symmetry_equiv_pos_as_xyz
  1  'x, y, z'
loop_
 _atom_site_type_symbol
 _atom_site_label
 _atom_site_symmetry_multiplicity
 _atom_site_fract_x
 _atom_site_fract_y
 _atom_site_fract_z
 _atom_site_occupancy
  Mo  Mo0  1  -0.01759750  7.25902000  3.63124000  1
  Mo  Mo1  1  1.80404000  1.81503000  0.01093930  1
  Mo  Mo2  1  1.80106000  7.29491000  1.82346000  1
  Mo  Mo3  1  7.28551000  1.81052000  1.82572000  1
  Mo  Mo4  1  3.63200000  7.27627000  0.02329040  1
  Mo  Mo5  1  5.44609000  1.82343000  0.01336970  1
  Mo  Mo6  1  5.46938000  0.02513560  1.83451000  1
  Mo  Mo7  1  3.63067000  1.79928000  1.81130000  1
  Mo  Mo8  1  7.28747000  3.65467000  3.63884000  1
  Mo  Mo9  1  1.82387000  5.46380000  3.61805000  1
  Mo  Mo10  1  1.82892000  3.63404000  1.78703000  1
  Mo  Mo11  1  0.01119020  5.46047000  1.81289000  1
  Mo  Mo12  1  3.65508000  3.64602000  3.65835000  1
  Mo  Mo13  1  5.45519000  5.44559000  3.63340000  1
  Mo  Mo14  1  5.48730000  3.63606000  1.82158000  1
  Mo  Mo15  1  3.62383000  5.45782000  1.80707000  1
