# generated using pymatgen
data_Mo
_symmetry_space_group_name_H-M   'P 1'
_cell_length_a   7.28336437
_cell_length_b   7.28336437
_cell_length_c   3.64168215
_cell_angle_alpha   90.00000000
_cell_angle_beta   90.00000000
_cell_angle_gamma   90.00000000
_symmetry_Int_Tables_number   1
_chemical_formula_structural   Mo
_chemical_formula_sum   Mo16
_cell_volume   193.18175713
_cell_formula_units_Z   16
loop_
 _symmetry_equiv_pos_site_id
 _symmetry_equiv_pos_as_xyz
  1  'x, y, z'
loop_
 _atom_site_type_symbol
 _atom_site_label
 _atom_site_symmetry_multiplicity
 _atom_site_fract_x
 _atom_site_fract_y
 _atom_site_fract_z
 _atom_site_occupancy
  Mo  Mo0  1  0.07631410  -0.02198870  -0.02347480  1
  Mo  Mo1  1  1.75870000  1.87912000  0.02739430  1
  Mo  Mo2  1  1.76780000  7.28656000  1.77779000  1
  Mo  Mo3  1  -0.03222450  1.70489000  1.84723000  1
  Mo  Mo4  1  3.64230000  -0.02146880  -0.05551360  1
  Mo  Mo5  1  5.43867000  1.80710000  3.59580000  1
  Mo  Mo6  1  5.40192000  7.30514000  1.79639000  1
  Mo  Mo7  1  3.65686000  1.84286000  1.81044000  1
  Mo  Mo8  1  7.36836000  3.65877000  0.04921780  1
  Mo  Mo9  1  1.79916000  5.46414000  3.59547000  1
  Mo  Mo10  1  1.90480000  3.70954000  1.91647000  1
  Mo  Mo11  1  -0.02933120  5.53131000  1.83229000  1
  Mo  Mo12  1  3.59846000  3.57949000  3.71399000  1
  Mo  Mo13  1  5.42690000  5.51932000  3.62868000  1
  Mo  Mo14  1  5.51750000  3.61190000  1.86859000  1
  Mo  Mo15  1  3.64445000  5.36732000  1.73123000  1
