# generated using pymatgen
data_Mo
_symmetry_space_group_name_H-M   'P 1'
_cell_length_a   7.28336437
_cell_length_b   7.28336437
_cell_length_c   3.64168215
_cell_angle_alpha   90.00000000
_cell_angle_beta   90.00000000
_cell_angle_gamma   90.00000000
_symmetry_Int_Tables_number   1
_chemical_formula_structural   Mo
_chemical_formula_sum   Mo16
_cell_volume   193.18175713
_cell_formula_units_Z   16
loop_
 _symmetry_equiv_pos_site_id
 _symmetry_equiv_pos_as_xyz
  1  'x, y, z'
loop_
 _atom_site_type_symbol
 _atom_site_label
 _atom_site_symmetry_multiplicity
 _atom_site_fract_x
 _atom_site_fract_y
 _atom_site_fract_z
 _atom_site_occupancy
  Mo  Mo0  1  0.03326750  -0.05713820  -0.01744090  1
  Mo  Mo1  1  1.78909000  1.77985000  -0.02012540  1
  Mo  Mo2  1  1.83583000  7.22732000  1.84839000  1
  Mo  Mo3  1  -0.10519200  1.76250000  1.83388000  1
  Mo  Mo4  1  3.60552000  0.04913300  0.07249290  1
  Mo  Mo5  1  5.52892000  1.83738000  3.57510000  1
  Mo  Mo6  1  5.34540000  7.32272000  1.91913000  1
  Mo  Mo7  1  3.67064000  1.86531000  1.80798000  1
  Mo  Mo8  1  7.35922000  3.70739000  -0.02572600  1
  Mo  Mo9  1  1.88617000  5.37780000  3.70359000  1
  Mo  Mo10  1  1.86298000  3.56553000  1.73838000  1
  Mo  Mo11  1  -0.06485640  5.43578000  1.81375000  1
  Mo  Mo12  1  3.64681000  3.62389000  3.64782000  1
  Mo  Mo13  1  5.41133000  5.49952000  3.57478000  1
  Mo  Mo14  1  5.52424000  3.62158000  1.77163000  1
  Mo  Mo15  1  3.61124000  5.60543000  1.86837000  1
