# generated using pymatgen
data_Mo
_symmetry_space_group_name_H-M   'P 1'
_cell_length_a   7.28336437
_cell_length_b   7.28336437
_cell_length_c   3.64168215
_cell_angle_alpha   90.00000000
_cell_angle_beta   90.00000000
_cell_angle_gamma   90.00000000
_symmetry_Int_Tables_number   1
_chemical_formula_structural   Mo
_chemical_formula_sum   Mo16
_cell_volume   193.18175713
_cell_formula_units_Z   16
loop_
 _symmetry_equiv_pos_site_id
 _symmetry_equiv_pos_as_xyz
  1  'x, y, z'
loop_
 _atom_site_type_symbol
 _atom_site_label
 _atom_site_symmetry_multiplicity
 _atom_site_fract_x
 _atom_site_fract_y
 _atom_site_fract_z
 _atom_site_occupancy
  Mo  Mo0  1  0.10929300  0.11115600  -0.06287420  1
  Mo  Mo1  1  1.90731000  1.87100000  0.00096459  1
  Mo  Mo2  1  1.84396000  7.39504000  1.77214000  1
  Mo  Mo3  1  -0.00459111  1.84222000  1.78389000  1
  Mo  Mo4  1  3.64621000  -0.13738600  0.02983810  1
  Mo  Mo5  1  5.40839000  1.79947000  3.63149000  1
  Mo  Mo6  1  5.41449000  7.24904000  1.84189000  1
  Mo  Mo7  1  3.71473000  1.84844000  1.92744000  1
  Mo  Mo8  1  7.26927000  3.63535000  -0.01910370  1
  Mo  Mo9  1  1.74537000  5.42766000  3.62115000  1
  Mo  Mo10  1  1.80547000  3.59894000  1.73789000  1
  Mo  Mo11  1  -0.06008360  5.48818000  1.82990000  1
  Mo  Mo12  1  3.65198000  3.68740000  3.70286000  1
  Mo  Mo13  1  5.53527000  5.37281000  3.60795000  1
  Mo  Mo14  1  5.37280000  3.54891000  1.82914000  1
  Mo  Mo15  1  3.58077000  5.48577000  1.87744000  1
