# generated using pymatgen
data_Mo
_symmetry_space_group_name_H-M   'P 1'
_cell_length_a   7.28336437
_cell_length_b   7.28336437
_cell_length_c   3.64168215
_cell_angle_alpha   90.00000000
_cell_angle_beta   90.00000000
_cell_angle_gamma   90.00000000
_symmetry_Int_Tables_number   1
_chemical_formula_structural   Mo
_chemical_formula_sum   Mo16
_cell_volume   193.18175713
_cell_formula_units_Z   16
loop_
 _symmetry_equiv_pos_site_id
 _symmetry_equiv_pos_as_xyz
  1  'x, y, z'
loop_
 _atom_site_type_symbol
 _atom_site_label
 _atom_site_symmetry_multiplicity
 _atom_site_fract_x
 _atom_site_fract_y
 _atom_site_fract_z
 _atom_site_occupancy
  Mo  Mo0  1  0.09095720  0.02700170  0.09291630  1
  Mo  Mo1  1  1.79007000  1.72467000  -0.07255900  1
  Mo  Mo2  1  1.84594000  7.29488000  1.83475000  1
  Mo  Mo3  1  -0.04959190  1.84489000  1.77782000  1
  Mo  Mo4  1  3.74203000  0.07987310  0.01169320  1
  Mo  Mo5  1  5.43821000  1.75277000  3.67255000  1
  Mo  Mo6  1  5.53167000  7.30912000  1.81617000  1
  Mo  Mo7  1  3.55647000  1.84707000  1.81610000  1
  Mo  Mo8  1  7.15671000  3.74658000  -0.00718915  1
  Mo  Mo9  1  1.88265000  5.46372000  3.62688000  1
  Mo  Mo10  1  1.78791000  3.62505000  1.82906000  1
  Mo  Mo11  1  0.06054450  5.46583000  1.82666000  1
  Mo  Mo12  1  3.59899000  3.55611000  3.60728000  1
  Mo  Mo13  1  5.40277000  5.44120000  3.61919000  1
  Mo  Mo14  1  5.50208000  3.61134000  1.83513000  1
  Mo  Mo15  1  3.60323000  5.43389000  1.82552000  1
