# generated using pymatgen
data_Mo
_symmetry_space_group_name_H-M   'P 1'
_cell_length_a   7.28336437
_cell_length_b   7.28336437
_cell_length_c   3.64168215
_cell_angle_alpha   90.00000000
_cell_angle_beta   90.00000000
_cell_angle_gamma   90.00000000
_symmetry_Int_Tables_number   1
_chemical_formula_structural   Mo
_chemical_formula_sum   Mo16
_cell_volume   193.18175713
_cell_formula_units_Z   16
loop_
 _symmetry_equiv_pos_site_id
 _symmetry_equiv_pos_as_xyz
  1  'x, y, z'
loop_
 _atom_site_type_symbol
 _atom_site_label
 _atom_site_symmetry_multiplicity
 _atom_site_fract_x
 _atom_site_fract_y
 _atom_site_fract_z
 _atom_site_occupancy
  Mo  Mo0  1  -0.05204980  -0.02650080  -0.03513990  1
  Mo  Mo1  1  1.81761000  1.73849000  -0.04085610  1
  Mo  Mo2  1  1.75383000  7.18621000  1.85092000  1
  Mo  Mo3  1  0.07514840  1.80289000  1.79725000  1
  Mo  Mo4  1  3.66183000  0.15127800  0.02907600  1
  Mo  Mo5  1  5.49584000  1.79558000  3.59287000  1
  Mo  Mo6  1  5.55633000  7.27647000  1.83091000  1
  Mo  Mo7  1  3.68119000  1.96370000  1.78228000  1
  Mo  Mo8  1  7.30424000  3.65130000  -0.05168010  1
  Mo  Mo9  1  1.87631000  5.40893000  3.73342000  1
  Mo  Mo10  1  1.78733000  3.66044000  1.72622000  1
  Mo  Mo11  1  -0.04508640  5.44818000  1.83943000  1
  Mo  Mo12  1  3.60512000  3.63115000  3.63382000  1
  Mo  Mo13  1  5.38496000  5.42560000  3.65769000  1
  Mo  Mo14  1  5.37017000  3.60251000  1.82821000  1
  Mo  Mo15  1  3.66787000  5.50778000  1.93757000  1
