# generated using pymatgen
data_Mo
_symmetry_space_group_name_H-M   'P 1'
_cell_length_a   7.28336437
_cell_length_b   7.28336437
_cell_length_c   3.64168215
_cell_angle_alpha   90.00000000
_cell_angle_beta   90.00000000
_cell_angle_gamma   90.00000000
_symmetry_Int_Tables_number   1
_chemical_formula_structural   Mo
_chemical_formula_sum   Mo16
_cell_volume   193.18175713
_cell_formula_units_Z   16
loop_
 _symmetry_equiv_pos_site_id
 _symmetry_equiv_pos_as_xyz
  1  'x, y, z'
loop_
 _atom_site_type_symbol
 _atom_site_label
 _atom_site_symmetry_multiplicity
 _atom_site_fract_x
 _atom_site_fract_y
 _atom_site_fract_z
 _atom_site_occupancy
  Mo  Mo0  1  -0.14385000  0.01083350  -0.05789820  1
  Mo  Mo1  1  1.82984000  1.84076000  0.00383308  1
  Mo  Mo2  1  1.79925000  7.24910000  1.77322000  1
  Mo  Mo3  1  0.07257430  1.77405000  1.85062000  1
  Mo  Mo4  1  3.60560000  -0.05357210  -0.01317310  1
  Mo  Mo5  1  5.50713000  1.91269000  3.71714000  1
  Mo  Mo6  1  5.49047000  7.33400000  1.82791000  1
  Mo  Mo7  1  3.56682000  1.76604000  1.83303000  1
  Mo  Mo8  1  7.25766000  3.57449000  0.00145640  1
  Mo  Mo9  1  1.76992000  5.51120000  3.58748000  1
  Mo  Mo10  1  1.84815000  3.61449000  1.93073000  1
  Mo  Mo11  1  0.04507190  5.52212000  1.74630000  1
  Mo  Mo12  1  3.71575000  3.62771000  3.71237000  1
  Mo  Mo13  1  5.48627000  5.47017000  3.61832000  1
  Mo  Mo14  1  5.45408000  3.68818000  1.84846000  1
  Mo  Mo15  1  3.63591000  5.38175000  1.73221000  1
