# generated using pymatgen
data_Mo
_symmetry_space_group_name_H-M   'P 1'
_cell_length_a   7.28336437
_cell_length_b   7.28336437
_cell_length_c   3.64168215
_cell_angle_alpha   90.00000000
_cell_angle_beta   90.00000000
_cell_angle_gamma   90.00000000
_symmetry_Int_Tables_number   1
_chemical_formula_structural   Mo
_chemical_formula_sum   Mo16
_cell_volume   193.18175713
_cell_formula_units_Z   16
loop_
 _symmetry_equiv_pos_site_id
 _symmetry_equiv_pos_as_xyz
  1  'x, y, z'
loop_
 _atom_site_type_symbol
 _atom_site_label
 _atom_site_symmetry_multiplicity
 _atom_site_fract_x
 _atom_site_fract_y
 _atom_site_fract_z
 _atom_site_occupancy
  Mo  Mo0  1  -0.07611810  0.10195100  -0.01104650  1
  Mo  Mo1  1  1.86835000  1.80625000  -0.00879867  1
  Mo  Mo2  1  1.75059000  7.17540000  1.78640000  1
  Mo  Mo3  1  -0.00193979  1.79798000  1.84132000  1
  Mo  Mo4  1  3.63202000  -0.03784510  -0.02108330  1
  Mo  Mo5  1  5.31297000  1.82690000  3.48252000  1
  Mo  Mo6  1  5.45802000  7.18862000  1.89140000  1
  Mo  Mo7  1  3.58036000  1.87844000  1.76538000  1
  Mo  Mo8  1  7.28114000  3.62098000  0.06194320  1
  Mo  Mo9  1  1.76715000  5.45439000  3.66863000  1
  Mo  Mo10  1  1.87336000  3.70889000  1.80361000  1
  Mo  Mo11  1  0.01604910  5.43016000  1.85950000  1
  Mo  Mo12  1  3.71437000  3.69030000  3.67939000  1
  Mo  Mo13  1  5.51180000  5.43092000  3.65711000  1
  Mo  Mo14  1  5.63081000  3.58246000  1.83785000  1
  Mo  Mo15  1  3.62171000  5.56820000  1.81786000  1
