# generated using pymatgen
data_Mo
_symmetry_space_group_name_H-M   'P 1'
_cell_length_a   7.28336437
_cell_length_b   7.28336437
_cell_length_c   3.64168215
_cell_angle_alpha   90.00000000
_cell_angle_beta   90.00000000
_cell_angle_gamma   90.00000000
_symmetry_Int_Tables_number   1
_chemical_formula_structural   Mo
_chemical_formula_sum   Mo16
_cell_volume   193.18175713
_cell_formula_units_Z   16
loop_
 _symmetry_equiv_pos_site_id
 _symmetry_equiv_pos_as_xyz
  1  'x, y, z'
loop_
 _atom_site_type_symbol
 _atom_site_label
 _atom_site_symmetry_multiplicity
 _atom_site_fract_x
 _atom_site_fract_y
 _atom_site_fract_z
 _atom_site_occupancy
  Mo  Mo0  1  0.10670400  -0.02756690  0.02609710  1
  Mo  Mo1  1  1.74554000  1.82033000  -0.03276780  1
  Mo  Mo2  1  1.84595000  7.29468000  1.85431000  1
  Mo  Mo3  1  -0.03153570  1.80408000  1.89803000  1
  Mo  Mo4  1  3.63853000  -0.08556240  0.05173760  1
  Mo  Mo5  1  5.46622000  1.89927000  3.70634000  1
  Mo  Mo6  1  5.38229000  7.30660000  1.86526000  1
  Mo  Mo7  1  3.58599000  1.72023000  1.79680000  1
  Mo  Mo8  1  7.28213000  3.68440000  0.02300030  1
  Mo  Mo9  1  1.80719000  5.52078000  3.58531000  1
  Mo  Mo10  1  1.82780000  3.65261000  1.80403000  1
  Mo  Mo11  1  -0.05889100  5.48620000  1.79465000  1
  Mo  Mo12  1  3.63932000  3.56878000  3.59303000  1
  Mo  Mo13  1  5.44906000  5.48246000  3.58798000  1
  Mo  Mo14  1  5.57206000  3.66709000  1.83242000  1
  Mo  Mo15  1  3.68226000  5.42962000  1.72579000  1
