# generated using pymatgen
data_Mo
_symmetry_space_group_name_H-M   'P 1'
_cell_length_a   7.28336437
_cell_length_b   7.28336437
_cell_length_c   3.64168215
_cell_angle_alpha   90.00000000
_cell_angle_beta   90.00000000
_cell_angle_gamma   90.00000000
_symmetry_Int_Tables_number   1
_chemical_formula_structural   Mo
_chemical_formula_sum   Mo16
_cell_volume   193.18175713
_cell_formula_units_Z   16
loop_
 _symmetry_equiv_pos_site_id
 _symmetry_equiv_pos_as_xyz
  1  'x, y, z'
loop_
 _atom_site_type_symbol
 _atom_site_label
 _atom_site_symmetry_multiplicity
 _atom_site_fract_x
 _atom_site_fract_y
 _atom_site_fract_z
 _atom_site_occupancy
  Mo  Mo0  1  -0.01095490  -0.03532950  0.10410500  1
  Mo  Mo1  1  1.77739000  1.77301000  -0.04102770  1
  Mo  Mo2  1  1.77478000  7.27379000  1.85346000  1
  Mo  Mo3  1  0.04401370  1.86014000  1.80323000  1
  Mo  Mo4  1  3.65369000  -0.02662980  0.03786100  1
  Mo  Mo5  1  5.46129000  1.88098000  3.65584000  1
  Mo  Mo6  1  5.49141000  7.30530000  1.77905000  1
  Mo  Mo7  1  3.62791000  1.88156000  1.84268000  1
  Mo  Mo8  1  7.23872000  3.57840000  -0.05306000  1
  Mo  Mo9  1  1.82705000  5.43949000  3.61511000  1
  Mo  Mo10  1  1.83221000  3.53149000  1.77104000  1
  Mo  Mo11  1  0.00137058  5.49033000  1.85281000  1
  Mo  Mo12  1  3.70896000  3.70576000  3.52065000  1
  Mo  Mo13  1  5.46380000  5.51998000  3.66627000  1
  Mo  Mo14  1  5.43275000  3.66144000  1.80736000  1
  Mo  Mo15  1  3.61625000  5.38427000  1.89662000  1
