# generated using pymatgen
data_Mo
_symmetry_space_group_name_H-M   'P 1'
_cell_length_a   7.27806742
_cell_length_b   7.27806742
_cell_length_c   3.63903379
_cell_angle_alpha   90.00000000
_cell_angle_beta   90.00000000
_cell_angle_gamma   90.00000000
_symmetry_Int_Tables_number   1
_chemical_formula_structural   Mo
_chemical_formula_sum   Mo16
_cell_volume   192.76058556
_cell_formula_units_Z   16
loop_
 _symmetry_equiv_pos_site_id
 _symmetry_equiv_pos_as_xyz
  1  'x, y, z'
loop_
 _atom_site_type_symbol
 _atom_site_label
 _atom_site_symmetry_multiplicity
 _atom_site_fract_x
 _atom_site_fract_y
 _atom_site_fract_z
 _atom_site_occupancy
  Mo  Mo0  1  0.01386360  7.29800000  3.59649000  1
  Mo  Mo1  1  1.82610000  1.82859000  0.03037840  1
  Mo  Mo2  1  1.83453000  7.26561000  1.80617000  1
  Mo  Mo3  1  7.29016000  1.82054000  1.81734000  1
  Mo  Mo4  1  3.63798000  7.30942000  -0.01125670  1
  Mo  Mo5  1  5.46740000  1.78848000  -0.01953480  1
  Mo  Mo6  1  5.45170000  -0.01149230  1.82090000  1
  Mo  Mo7  1  3.64234000  1.81786000  1.78623000  1
  Mo  Mo8  1  7.27949000  3.62724000  3.67014000  1
  Mo  Mo9  1  1.81787000  5.45398000  3.66726000  1
  Mo  Mo10  1  1.80128000  3.63084000  1.82168000  1
  Mo  Mo11  1  -0.02641880  5.45116000  1.85453000  1
  Mo  Mo12  1  3.62319000  3.64136000  3.64941000  1
  Mo  Mo13  1  5.47698000  5.46600000  3.63726000  1
  Mo  Mo14  1  5.43881000  3.66768000  1.80618000  1
  Mo  Mo15  1  3.64870000  5.44680000  1.81787000  1
