# generated using pymatgen
data_Mo
_symmetry_space_group_name_H-M   'P 1'
_cell_length_a   7.28336437
_cell_length_b   7.28336437
_cell_length_c   3.64168215
_cell_angle_alpha   90.00000000
_cell_angle_beta   90.00000000
_cell_angle_gamma   90.00000000
_symmetry_Int_Tables_number   1
_chemical_formula_structural   Mo
_chemical_formula_sum   Mo16
_cell_volume   193.18175713
_cell_formula_units_Z   16
loop_
 _symmetry_equiv_pos_site_id
 _symmetry_equiv_pos_as_xyz
  1  'x, y, z'
loop_
 _atom_site_type_symbol
 _atom_site_label
 _atom_site_symmetry_multiplicity
 _atom_site_fract_x
 _atom_site_fract_y
 _atom_site_fract_z
 _atom_site_occupancy
  Mo  Mo0  1  0.02667600  -0.05809630  -0.05414110  1
  Mo  Mo1  1  1.82974000  1.84661000  0.00292838  1
  Mo  Mo2  1  1.85901000  7.29843000  1.78144000  1
  Mo  Mo3  1  -0.02645250  1.89244000  1.82341000  1
  Mo  Mo4  1  3.63317000  0.06701580  -0.02890440  1
  Mo  Mo5  1  5.56201000  1.80316000  3.76909000  1
  Mo  Mo6  1  5.49194000  7.29484000  1.78904000  1
  Mo  Mo7  1  3.69885000  1.76709000  1.88859000  1
  Mo  Mo8  1  7.27173000  3.64541000  -0.04600010  1
  Mo  Mo9  1  1.96500000  5.50536000  3.57024000  1
  Mo  Mo10  1  1.70515000  3.67079000  1.81980000  1
  Mo  Mo11  1  -0.01409530  5.43822000  1.82587000  1
  Mo  Mo12  1  3.52928000  3.55352000  3.64630000  1
  Mo  Mo13  1  5.40705000  5.40436000  3.63345000  1
  Mo  Mo14  1  5.38727000  3.60886000  1.84512000  1
  Mo  Mo15  1  3.61431000  5.48599000  1.84578000  1
