# generated using pymatgen
data_Mo
_symmetry_space_group_name_H-M   'P 1'
_cell_length_a   7.28336437
_cell_length_b   7.28336437
_cell_length_c   3.64168215
_cell_angle_alpha   90.00000000
_cell_angle_beta   90.00000000
_cell_angle_gamma   90.00000000
_symmetry_Int_Tables_number   1
_chemical_formula_structural   Mo
_chemical_formula_sum   Mo16
_cell_volume   193.18175713
_cell_formula_units_Z   16
loop_
 _symmetry_equiv_pos_site_id
 _symmetry_equiv_pos_as_xyz
  1  'x, y, z'
loop_
 _atom_site_type_symbol
 _atom_site_label
 _atom_site_symmetry_multiplicity
 _atom_site_fract_x
 _atom_site_fract_y
 _atom_site_fract_z
 _atom_site_occupancy
  Mo  Mo0  1  -0.01081500  -0.05302000  0.05601970  1
  Mo  Mo1  1  1.72251000  1.75437000  -0.00449218  1
  Mo  Mo2  1  1.76021000  7.30253000  1.80845000  1
  Mo  Mo3  1  -0.05234820  1.81285000  1.79474000  1
  Mo  Mo4  1  3.72712000  0.08854960  0.09630710  1
  Mo  Mo5  1  5.48612000  1.72376000  3.67233000  1
  Mo  Mo6  1  5.48736000  7.23515000  1.83682000  1
  Mo  Mo7  1  3.53069000  1.86444000  1.88618000  1
  Mo  Mo8  1  7.28510000  3.66736000  -0.01903190  1
  Mo  Mo9  1  1.93755000  5.52269000  3.50108000  1
  Mo  Mo10  1  1.83847000  3.63460000  1.81500000  1
  Mo  Mo11  1  0.03983680  5.44964000  1.71997000  1
  Mo  Mo12  1  3.58663000  3.61135000  3.60291000  1
  Mo  Mo13  1  5.37002000  5.47666000  3.67921000  1
  Mo  Mo14  1  5.55835000  3.64174000  1.81841000  1
  Mo  Mo15  1  3.67385000  5.49133000  1.84810000  1
