# generated using pymatgen
data_Mo
_symmetry_space_group_name_H-M   'P 1'
_cell_length_a   7.28336437
_cell_length_b   7.28336437
_cell_length_c   3.64168215
_cell_angle_alpha   90.00000000
_cell_angle_beta   90.00000000
_cell_angle_gamma   90.00000000
_symmetry_Int_Tables_number   1
_chemical_formula_structural   Mo
_chemical_formula_sum   Mo16
_cell_volume   193.18175713
_cell_formula_units_Z   16
loop_
 _symmetry_equiv_pos_site_id
 _symmetry_equiv_pos_as_xyz
  1  'x, y, z'
loop_
 _atom_site_type_symbol
 _atom_site_label
 _atom_site_symmetry_multiplicity
 _atom_site_fract_x
 _atom_site_fract_y
 _atom_site_fract_z
 _atom_site_occupancy
  Mo  Mo0  1  -0.05424650  0.09216980  0.07243500  1
  Mo  Mo1  1  1.83426000  1.76988000  -0.02055790  1
  Mo  Mo2  1  1.78238000  7.23015000  1.89476000  1
  Mo  Mo3  1  0.06972140  1.81500000  1.80040000  1
  Mo  Mo4  1  3.66774000  -0.00364704  0.03935200  1
  Mo  Mo5  1  5.44607000  1.85940000  3.53661000  1
  Mo  Mo6  1  5.50233000  7.26672000  1.84956000  1
  Mo  Mo7  1  3.60519000  1.84815000  1.78535000  1
  Mo  Mo8  1  7.27155000  3.68766000  0.03040190  1
  Mo  Mo9  1  1.77688000  5.36008000  3.75160000  1
  Mo  Mo10  1  1.91230000  3.61937000  1.75036000  1
  Mo  Mo11  1  -0.06531010  5.43474000  1.83641000  1
  Mo  Mo12  1  3.66527000  3.65979000  3.64694000  1
  Mo  Mo13  1  5.38785000  5.46276000  3.56465000  1
  Mo  Mo14  1  5.55082000  3.67452000  1.77839000  1
  Mo  Mo15  1  3.58783000  5.44727000  1.79534000  1
