# generated using pymatgen
data_Mo
_symmetry_space_group_name_H-M   'P 1'
_cell_length_a   7.28336437
_cell_length_b   7.28336437
_cell_length_c   3.64168215
_cell_angle_alpha   90.00000000
_cell_angle_beta   90.00000000
_cell_angle_gamma   90.00000000
_symmetry_Int_Tables_number   1
_chemical_formula_structural   Mo
_chemical_formula_sum   Mo16
_cell_volume   193.18175713
_cell_formula_units_Z   16
loop_
 _symmetry_equiv_pos_site_id
 _symmetry_equiv_pos_as_xyz
  1  'x, y, z'
loop_
 _atom_site_type_symbol
 _atom_site_label
 _atom_site_symmetry_multiplicity
 _atom_site_fract_x
 _atom_site_fract_y
 _atom_site_fract_z
 _atom_site_occupancy
  Mo  Mo0  1  0.00693928  -0.08407870  -0.04511270  1
  Mo  Mo1  1  1.77983000  1.82575000  0.04758320  1
  Mo  Mo2  1  1.71505000  7.33221000  1.69567000  1
  Mo  Mo3  1  -0.05110040  1.79828000  1.82681000  1
  Mo  Mo4  1  3.59367000  0.10893100  -0.06946640  1
  Mo  Mo5  1  5.51538000  1.75182000  3.69386000  1
  Mo  Mo6  1  5.52628000  7.21942000  1.75801000  1
  Mo  Mo7  1  3.63668000  1.78170000  1.83750000  1
  Mo  Mo8  1  7.31227000  3.70456000  0.03804680  1
  Mo  Mo9  1  1.98424000  5.48390000  3.57806000  1
  Mo  Mo10  1  1.77431000  3.69510000  1.82414000  1
  Mo  Mo11  1  -0.00885156  5.46782000  1.83519000  1
  Mo  Mo12  1  3.61502000  3.55407000  3.68839000  1
  Mo  Mo13  1  5.45361000  5.41667000  3.69893000  1
  Mo  Mo14  1  5.40821000  3.65172000  1.86154000  1
  Mo  Mo15  1  3.67911000  5.51611000  1.84284000  1
