# generated using pymatgen
data_Mo
_symmetry_space_group_name_H-M   'P 1'
_cell_length_a   7.28336437
_cell_length_b   7.28336437
_cell_length_c   3.64168215
_cell_angle_alpha   90.00000000
_cell_angle_beta   90.00000000
_cell_angle_gamma   90.00000000
_symmetry_Int_Tables_number   1
_chemical_formula_structural   Mo
_chemical_formula_sum   Mo16
_cell_volume   193.18175713
_cell_formula_units_Z   16
loop_
 _symmetry_equiv_pos_site_id
 _symmetry_equiv_pos_as_xyz
  1  'x, y, z'
loop_
 _atom_site_type_symbol
 _atom_site_label
 _atom_site_symmetry_multiplicity
 _atom_site_fract_x
 _atom_site_fract_y
 _atom_site_fract_z
 _atom_site_occupancy
  Mo  Mo0  1  0.06736950  -0.05313170  0.06032930  1
  Mo  Mo1  1  1.88857000  1.79451000  -0.06494780  1
  Mo  Mo2  1  1.89330000  7.26544000  1.85106000  1
  Mo  Mo3  1  -0.04224390  1.92147000  1.78611000  1
  Mo  Mo4  1  3.67875000  -0.03401790  0.03209650  1
  Mo  Mo5  1  5.49411000  1.87562000  3.70883000  1
  Mo  Mo6  1  5.51549000  7.38024000  1.77329000  1
  Mo  Mo7  1  3.63770000  1.76350000  1.83765000  1
  Mo  Mo8  1  7.28776000  3.57722000  -0.04697420  1
  Mo  Mo9  1  1.75602000  5.52798000  3.61240000  1
  Mo  Mo10  1  1.80876000  3.64552000  1.86792000  1
  Mo  Mo11  1  -0.04085030  5.44975000  1.81333000  1
  Mo  Mo12  1  3.52774000  3.61190000  3.58890000  1
  Mo  Mo13  1  5.46066000  5.48740000  3.65072000  1
  Mo  Mo14  1  5.37447000  3.62274000  1.79218000  1
  Mo  Mo15  1  3.63302000  5.38784000  1.84911000  1
