# generated using pymatgen
data_Mo
_symmetry_space_group_name_H-M   'P 1'
_cell_length_a   7.28336437
_cell_length_b   7.28336437
_cell_length_c   3.64168215
_cell_angle_alpha   90.00000000
_cell_angle_beta   90.00000000
_cell_angle_gamma   90.00000000
_symmetry_Int_Tables_number   1
_chemical_formula_structural   Mo
_chemical_formula_sum   Mo16
_cell_volume   193.18175713
_cell_formula_units_Z   16
loop_
 _symmetry_equiv_pos_site_id
 _symmetry_equiv_pos_as_xyz
  1  'x, y, z'
loop_
 _atom_site_type_symbol
 _atom_site_label
 _atom_site_symmetry_multiplicity
 _atom_site_fract_x
 _atom_site_fract_y
 _atom_site_fract_z
 _atom_site_occupancy
  Mo  Mo0  1  -0.12170800  -0.03958160  -0.07712850  1
  Mo  Mo1  1  1.88595000  1.85557000  0.01381860  1
  Mo  Mo2  1  1.91552000  7.27805000  1.75915000  1
  Mo  Mo3  1  0.05858930  1.80290000  1.75935000  1
  Mo  Mo4  1  3.59874000  0.04909900  -0.05872650  1
  Mo  Mo5  1  5.49555000  1.73635000  3.63373000  1
  Mo  Mo6  1  5.40568000  7.25661000  1.74514000  1
  Mo  Mo7  1  3.60802000  1.90661000  1.86576000  1
  Mo  Mo8  1  7.28025000  3.61084000  0.06155040  1
  Mo  Mo9  1  1.83599000  5.44884000  3.68186000  1
  Mo  Mo10  1  1.69462000  3.60625000  1.91220000  1
  Mo  Mo11  1  0.06100460  5.48699000  1.84333000  1
  Mo  Mo12  1  3.67387000  3.68887000  3.64371000  1
  Mo  Mo13  1  5.46685000  5.44891000  3.65362000  1
  Mo  Mo14  1  5.50159000  3.61868000  1.80366000  1
  Mo  Mo15  1  3.58012000  5.46901000  1.87099000  1
