# generated using pymatgen
data_Mo
_symmetry_space_group_name_H-M   'P 1'
_cell_length_a   7.28336437
_cell_length_b   7.28336437
_cell_length_c   3.64168215
_cell_angle_alpha   90.00000000
_cell_angle_beta   90.00000000
_cell_angle_gamma   90.00000000
_symmetry_Int_Tables_number   1
_chemical_formula_structural   Mo
_chemical_formula_sum   Mo16
_cell_volume   193.18175713
_cell_formula_units_Z   16
loop_
 _symmetry_equiv_pos_site_id
 _symmetry_equiv_pos_as_xyz
  1  'x, y, z'
loop_
 _atom_site_type_symbol
 _atom_site_label
 _atom_site_symmetry_multiplicity
 _atom_site_fract_x
 _atom_site_fract_y
 _atom_site_fract_z
 _atom_site_occupancy
  Mo  Mo0  1  0.03778190  0.04369450  -0.01369660  1
  Mo  Mo1  1  1.84843000  1.77913000  -0.04857170  1
  Mo  Mo2  1  1.79654000  7.21787000  1.80332000  1
  Mo  Mo3  1  0.07988710  1.80662000  1.77584000  1
  Mo  Mo4  1  3.68909000  0.06270640  0.02775130  1
  Mo  Mo5  1  5.39204000  1.81708000  3.54362000  1
  Mo  Mo6  1  5.48972000  7.24784000  1.82695000  1
  Mo  Mo7  1  3.66021000  1.78991000  1.74337000  1
  Mo  Mo8  1  7.26358000  3.53793000  -0.02812300  1
  Mo  Mo9  1  1.77776000  5.37606000  3.75527000  1
  Mo  Mo10  1  1.81789000  3.65823000  1.78941000  1
  Mo  Mo11  1  -0.06903010  5.34548000  1.89135000  1
  Mo  Mo12  1  3.58026000  3.71417000  3.70170000  1
  Mo  Mo13  1  5.53129000  5.51780000  3.63235000  1
  Mo  Mo14  1  5.43165000  3.65597000  1.87532000  1
  Mo  Mo15  1  3.61354000  5.65352000  1.83612000  1
