# generated using pymatgen
data_Mo
_symmetry_space_group_name_H-M   'P 1'
_cell_length_a   7.28336437
_cell_length_b   7.28336437
_cell_length_c   3.64168215
_cell_angle_alpha   90.00000000
_cell_angle_beta   90.00000000
_cell_angle_gamma   90.00000000
_symmetry_Int_Tables_number   1
_chemical_formula_structural   Mo
_chemical_formula_sum   Mo16
_cell_volume   193.18175713
_cell_formula_units_Z   16
loop_
 _symmetry_equiv_pos_site_id
 _symmetry_equiv_pos_as_xyz
  1  'x, y, z'
loop_
 _atom_site_type_symbol
 _atom_site_label
 _atom_site_symmetry_multiplicity
 _atom_site_fract_x
 _atom_site_fract_y
 _atom_site_fract_z
 _atom_site_occupancy
  Mo  Mo0  1  0.01781330  0.09871780  0.02890910  1
  Mo  Mo1  1  1.79966000  1.85997000  -0.01564120  1
  Mo  Mo2  1  1.85243000  7.25397000  1.80550000  1
  Mo  Mo3  1  -0.00765831  1.89939000  1.79093000  1
  Mo  Mo4  1  3.74455000  -0.07630040  -0.04231720  1
  Mo  Mo5  1  5.44455000  1.77538000  3.54159000  1
  Mo  Mo6  1  5.51087000  7.24812000  1.75705000  1
  Mo  Mo7  1  3.59668000  1.87442000  1.75862000  1
  Mo  Mo8  1  7.14668000  3.69708000  0.07290020  1
  Mo  Mo9  1  1.82597000  5.35524000  3.67226000  1
  Mo  Mo10  1  1.80800000  3.58063000  1.92020000  1
  Mo  Mo11  1  0.02658130  5.50582000  1.85194000  1
  Mo  Mo12  1  3.65960000  3.60922000  3.63556000  1
  Mo  Mo13  1  5.39370000  5.48211000  3.64171000  1
  Mo  Mo14  1  5.50976000  3.61870000  1.85833000  1
  Mo  Mo15  1  3.61144000  5.44153000  1.83447000  1
