# generated using pymatgen
data_Mo
_symmetry_space_group_name_H-M   'P 1'
_cell_length_a   7.27806742
_cell_length_b   7.27806742
_cell_length_c   3.63903379
_cell_angle_alpha   90.00000000
_cell_angle_beta   90.00000000
_cell_angle_gamma   90.00000000
_symmetry_Int_Tables_number   1
_chemical_formula_structural   Mo
_chemical_formula_sum   Mo16
_cell_volume   192.76058556
_cell_formula_units_Z   16
loop_
 _symmetry_equiv_pos_site_id
 _symmetry_equiv_pos_as_xyz
  1  'x, y, z'
loop_
 _atom_site_type_symbol
 _atom_site_label
 _atom_site_symmetry_multiplicity
 _atom_site_fract_x
 _atom_site_fract_y
 _atom_site_fract_z
 _atom_site_occupancy
  Mo  Mo0  1  -0.00346608  7.28369000  3.61366000  1
  Mo  Mo1  1  1.80992000  1.81693000  0.01501410  1
  Mo  Mo2  1  1.80241000  7.27256000  1.81876000  1
  Mo  Mo3  1  7.27046000  1.81698000  1.82773000  1
  Mo  Mo4  1  3.63538000  7.27483000  -0.01508980  1
  Mo  Mo5  1  5.48077000  1.81867000  0.00623531  1
  Mo  Mo6  1  5.45658000  0.02824490  1.82688000  1
  Mo  Mo7  1  3.63801000  1.79795000  1.79250000  1
  Mo  Mo8  1  7.28594000  3.65737000  3.62958000  1
  Mo  Mo9  1  1.83402000  5.47246000  3.66098000  1
  Mo  Mo10  1  1.81242000  3.62447000  1.78683000  1
  Mo  Mo11  1  0.01669430  5.46304000  1.84352000  1
  Mo  Mo12  1  3.63937000  3.65657000  3.67020000  1
  Mo  Mo13  1  5.46602000  5.43748000  3.63647000  1
  Mo  Mo14  1  5.44883000  3.62507000  1.82556000  1
  Mo  Mo15  1  3.63066000  5.45577000  1.81220000  1
