# generated using pymatgen
data_Mo
_symmetry_space_group_name_H-M   'P 1'
_cell_length_a   7.28336437
_cell_length_b   7.28336437
_cell_length_c   3.64168215
_cell_angle_alpha   90.00000000
_cell_angle_beta   90.00000000
_cell_angle_gamma   90.00000000
_symmetry_Int_Tables_number   1
_chemical_formula_structural   Mo
_chemical_formula_sum   Mo16
_cell_volume   193.18175713
_cell_formula_units_Z   16
loop_
 _symmetry_equiv_pos_site_id
 _symmetry_equiv_pos_as_xyz
  1  'x, y, z'
loop_
 _atom_site_type_symbol
 _atom_site_label
 _atom_site_symmetry_multiplicity
 _atom_site_fract_x
 _atom_site_fract_y
 _atom_site_fract_z
 _atom_site_occupancy
  Mo  Mo0  1  0.02887430  0.14337200  -0.06360550  1
  Mo  Mo1  1  1.84216000  1.76462000  0.05207790  1
  Mo  Mo2  1  1.84298000  7.21183000  1.78990000  1
  Mo  Mo3  1  0.06474110  1.80576000  1.85952000  1
  Mo  Mo4  1  3.73644000  -0.00599667  0.03127650  1
  Mo  Mo5  1  5.33592000  1.85105000  3.59748000  1
  Mo  Mo6  1  5.53679000  7.27725000  1.94415000  1
  Mo  Mo7  1  3.62976000  1.83100000  1.85697000  1
  Mo  Mo8  1  7.22372000  3.66660000  -0.01990690  1
  Mo  Mo9  1  1.79325000  5.43878000  3.62665000  1
  Mo  Mo10  1  1.73753000  3.63424000  1.74204000  1
  Mo  Mo11  1  0.05080190  5.47879000  1.77607000  1
  Mo  Mo12  1  3.59464000  3.59340000  3.69358000  1
  Mo  Mo13  1  5.48292000  5.41216000  3.62393000  1
  Mo  Mo14  1  5.42848000  3.56203000  1.81927000  1
  Mo  Mo15  1  3.61162000  5.55911000  1.78261000  1
