# generated using pymatgen
data_Mo
_symmetry_space_group_name_H-M   'P 1'
_cell_length_a   7.28336437
_cell_length_b   7.28336437
_cell_length_c   3.64168215
_cell_angle_alpha   90.00000000
_cell_angle_beta   90.00000000
_cell_angle_gamma   90.00000000
_symmetry_Int_Tables_number   1
_chemical_formula_structural   Mo
_chemical_formula_sum   Mo16
_cell_volume   193.18175713
_cell_formula_units_Z   16
loop_
 _symmetry_equiv_pos_site_id
 _symmetry_equiv_pos_as_xyz
  1  'x, y, z'
loop_
 _atom_site_type_symbol
 _atom_site_label
 _atom_site_symmetry_multiplicity
 _atom_site_fract_x
 _atom_site_fract_y
 _atom_site_fract_z
 _atom_site_occupancy
  Mo  Mo0  1  -0.05931950  0.06565320  0.03244760  1
  Mo  Mo1  1  1.88463000  1.87758000  -0.05896690  1
  Mo  Mo2  1  1.92620000  7.26378000  1.94501000  1
  Mo  Mo3  1  0.05190260  1.84369000  1.78533000  1
  Mo  Mo4  1  3.70912000  -0.16333500  0.04610460  1
  Mo  Mo5  1  5.44808000  1.86619000  3.62180000  1
  Mo  Mo6  1  5.49838000  7.30416000  1.88483000  1
  Mo  Mo7  1  3.60410000  1.68763000  1.75549000  1
  Mo  Mo8  1  7.20099000  3.61943000  -0.05924550  1
  Mo  Mo9  1  1.70119000  5.50590000  3.63514000  1
  Mo  Mo10  1  1.67698000  3.61830000  1.75278000  1
  Mo  Mo11  1  0.09399990  5.52796000  1.84851000  1
  Mo  Mo12  1  3.60805000  3.63315000  3.61611000  1
  Mo  Mo13  1  5.53762000  5.49175000  3.71408000  1
  Mo  Mo14  1  5.44071000  3.65705000  1.82328000  1
  Mo  Mo15  1  3.61803000  5.42511000  1.76930000  1
