# generated using pymatgen
data_Mo
_symmetry_space_group_name_H-M   'P 1'
_cell_length_a   7.28336437
_cell_length_b   7.28336437
_cell_length_c   3.64168215
_cell_angle_alpha   90.00000000
_cell_angle_beta   90.00000000
_cell_angle_gamma   90.00000000
_symmetry_Int_Tables_number   1
_chemical_formula_structural   Mo
_chemical_formula_sum   Mo16
_cell_volume   193.18175713
_cell_formula_units_Z   16
loop_
 _symmetry_equiv_pos_site_id
 _symmetry_equiv_pos_as_xyz
  1  'x, y, z'
loop_
 _atom_site_type_symbol
 _atom_site_label
 _atom_site_symmetry_multiplicity
 _atom_site_fract_x
 _atom_site_fract_y
 _atom_site_fract_z
 _atom_site_occupancy
  Mo  Mo0  1  0.02632960  -0.01691090  0.07493380  1
  Mo  Mo1  1  1.85161000  1.83492000  -0.06394950  1
  Mo  Mo2  1  1.86975000  7.34108000  1.77829000  1
  Mo  Mo3  1  -0.03600090  1.80660000  1.81243000  1
  Mo  Mo4  1  3.69767000  -0.07125550  0.04645760  1
  Mo  Mo5  1  5.42249000  1.85945000  3.60976000  1
  Mo  Mo6  1  5.44616000  7.25758000  1.82636000  1
  Mo  Mo7  1  3.69857000  1.80537000  1.73910000  1
  Mo  Mo8  1  7.25825000  3.54226000  -0.08627780  1
  Mo  Mo9  1  1.79945000  5.46593000  3.66350000  1
  Mo  Mo10  1  1.84239000  3.60733000  1.82077000  1
  Mo  Mo11  1  -0.05417800  5.43558000  1.95061000  1
  Mo  Mo12  1  3.57506000  3.76117000  3.63177000  1
  Mo  Mo13  1  5.45038000  5.46351000  3.67319000  1
  Mo  Mo14  1  5.52877000  3.62298000  1.78701000  1
  Mo  Mo15  1  3.56393000  5.50841000  1.84805000  1
