# generated using pymatgen
data_Mo
_symmetry_space_group_name_H-M   'P 1'
_cell_length_a   7.28336437
_cell_length_b   7.28336437
_cell_length_c   3.64168215
_cell_angle_alpha   90.00000000
_cell_angle_beta   90.00000000
_cell_angle_gamma   90.00000000
_symmetry_Int_Tables_number   1
_chemical_formula_structural   Mo
_chemical_formula_sum   Mo16
_cell_volume   193.18175713
_cell_formula_units_Z   16
loop_
 _symmetry_equiv_pos_site_id
 _symmetry_equiv_pos_as_xyz
  1  'x, y, z'
loop_
 _atom_site_type_symbol
 _atom_site_label
 _atom_site_symmetry_multiplicity
 _atom_site_fract_x
 _atom_site_fract_y
 _atom_site_fract_z
 _atom_site_occupancy
  Mo  Mo0  1  0.10520400  0.11493100  0.10837700  1
  Mo  Mo1  1  1.91042000  1.73209000  0.02265110  1
  Mo  Mo2  1  1.87144000  7.28685000  1.77971000  1
  Mo  Mo3  1  -0.05394120  1.86097000  1.79193000  1
  Mo  Mo4  1  3.71418000  -0.05153550  0.01875700  1
  Mo  Mo5  1  5.37835000  1.74570000  3.61449000  1
  Mo  Mo6  1  5.50349000  7.23154000  1.84878000  1
  Mo  Mo7  1  3.72244000  1.81984000  1.83377000  1
  Mo  Mo8  1  7.29640000  3.66587000  -0.03347340  1
  Mo  Mo9  1  1.72353000  5.44924000  3.64177000  1
  Mo  Mo10  1  1.77285000  3.68888000  1.77066000  1
  Mo  Mo11  1  -0.09221290  5.50368000  1.86467000  1
  Mo  Mo12  1  3.51172000  3.67161000  3.56472000  1
  Mo  Mo13  1  5.55430000  5.46124000  3.65914000  1
  Mo  Mo14  1  5.45441000  3.64339000  1.74314000  1
  Mo  Mo15  1  3.56806000  5.39970000  1.88291000  1
