# generated using pymatgen
data_Mo
_symmetry_space_group_name_H-M   'P 1'
_cell_length_a   7.28336437
_cell_length_b   7.28336437
_cell_length_c   3.64168215
_cell_angle_alpha   90.00000000
_cell_angle_beta   90.00000000
_cell_angle_gamma   90.00000000
_symmetry_Int_Tables_number   1
_chemical_formula_structural   Mo
_chemical_formula_sum   Mo16
_cell_volume   193.18175713
_cell_formula_units_Z   16
loop_
 _symmetry_equiv_pos_site_id
 _symmetry_equiv_pos_as_xyz
  1  'x, y, z'
loop_
 _atom_site_type_symbol
 _atom_site_label
 _atom_site_symmetry_multiplicity
 _atom_site_fract_x
 _atom_site_fract_y
 _atom_site_fract_z
 _atom_site_occupancy
  Mo  Mo0  1  -0.00103769  0.06535760  0.05233170  1
  Mo  Mo1  1  1.95460000  1.79876000  -0.03100090  1
  Mo  Mo2  1  1.91941000  7.27759000  1.92813000  1
  Mo  Mo3  1  0.04501130  1.83615000  1.76231000  1
  Mo  Mo4  1  3.63500000  -0.04689140  -0.02596180  1
  Mo  Mo5  1  5.46855000  1.82327000  3.63027000  1
  Mo  Mo6  1  5.46692000  7.24860000  1.88447000  1
  Mo  Mo7  1  3.66040000  1.82995000  1.80713000  1
  Mo  Mo8  1  7.20247000  3.57939000  0.03757440  1
  Mo  Mo9  1  1.73865000  5.47223000  3.67044000  1
  Mo  Mo10  1  1.72104000  3.63021000  1.72334000  1
  Mo  Mo11  1  0.04278640  5.40213000  1.80137000  1
  Mo  Mo12  1  3.68412000  3.69463000  3.52517000  1
  Mo  Mo13  1  5.45257000  5.40726000  3.70343000  1
  Mo  Mo14  1  5.35356000  3.73893000  1.81431000  1
  Mo  Mo15  1  3.59659000  5.46642000  1.82870000  1
