# generated using pymatgen
data_Mo
_symmetry_space_group_name_H-M   'P 1'
_cell_length_a   7.28336437
_cell_length_b   7.28336437
_cell_length_c   3.64168215
_cell_angle_alpha   90.00000000
_cell_angle_beta   90.00000000
_cell_angle_gamma   90.00000000
_symmetry_Int_Tables_number   1
_chemical_formula_structural   Mo
_chemical_formula_sum   Mo16
_cell_volume   193.18175713
_cell_formula_units_Z   16
loop_
 _symmetry_equiv_pos_site_id
 _symmetry_equiv_pos_as_xyz
  1  'x, y, z'
loop_
 _atom_site_type_symbol
 _atom_site_label
 _atom_site_symmetry_multiplicity
 _atom_site_fract_x
 _atom_site_fract_y
 _atom_site_fract_z
 _atom_site_occupancy
  Mo  Mo0  1  0.05567260  -0.02416500  0.01723300  1
  Mo  Mo1  1  1.90565000  1.87669000  -0.06388890  1
  Mo  Mo2  1  1.75084000  7.34230000  1.81661000  1
  Mo  Mo3  1  -0.03089980  1.78033000  1.83089000  1
  Mo  Mo4  1  3.60065000  -0.07124870  0.04287730  1
  Mo  Mo5  1  5.41250000  1.73524000  3.76364000  1
  Mo  Mo6  1  5.45101000  7.31831000  1.88794000  1
  Mo  Mo7  1  3.62996000  1.79985000  1.82944000  1
  Mo  Mo8  1  7.34478000  3.48708000  -0.08462640  1
  Mo  Mo9  1  1.84058000  5.49050000  3.57819000  1
  Mo  Mo10  1  1.79910000  3.66250000  1.77406000  1
  Mo  Mo11  1  -0.04375340  5.41309000  1.83115000  1
  Mo  Mo12  1  3.58657000  3.74582000  3.60064000  1
  Mo  Mo13  1  5.52215000  5.55727000  3.69476000  1
  Mo  Mo14  1  5.47498000  3.62258000  1.76653000  1
  Mo  Mo15  1  3.64085000  5.48784000  1.82655000  1
