# generated using pymatgen
data_Mo
_symmetry_space_group_name_H-M   'P 1'
_cell_length_a   7.28336437
_cell_length_b   7.28336437
_cell_length_c   3.64168215
_cell_angle_alpha   90.00000000
_cell_angle_beta   90.00000000
_cell_angle_gamma   90.00000000
_symmetry_Int_Tables_number   1
_chemical_formula_structural   Mo
_chemical_formula_sum   Mo16
_cell_volume   193.18175713
_cell_formula_units_Z   16
loop_
 _symmetry_equiv_pos_site_id
 _symmetry_equiv_pos_as_xyz
  1  'x, y, z'
loop_
 _atom_site_type_symbol
 _atom_site_label
 _atom_site_symmetry_multiplicity
 _atom_site_fract_x
 _atom_site_fract_y
 _atom_site_fract_z
 _atom_site_occupancy
  Mo  Mo0  1  -0.02760950  -0.07923520  0.07524450  1
  Mo  Mo1  1  1.86056000  1.80227000  -0.01945520  1
  Mo  Mo2  1  1.76366000  7.27927000  1.86070000  1
  Mo  Mo3  1  0.02198560  1.90607000  1.79422000  1
  Mo  Mo4  1  3.64429000  0.00288941  -0.01477410  1
  Mo  Mo5  1  5.58590000  1.85017000  3.58401000  1
  Mo  Mo6  1  5.41542000  7.29317000  1.72437000  1
  Mo  Mo7  1  3.65210000  1.83327000  1.76222000  1
  Mo  Mo8  1  7.35203000  3.62435000  0.03418410  1
  Mo  Mo9  1  1.79069000  5.50723000  3.61575000  1
  Mo  Mo10  1  1.88136000  3.63440000  1.93128000  1
  Mo  Mo11  1  -0.09816720  5.42226000  1.87163000  1
  Mo  Mo12  1  3.62855000  3.63793000  3.55795000  1
  Mo  Mo13  1  5.32538000  5.45608000  3.68247000  1
  Mo  Mo14  1  5.49508000  3.69329000  1.79206000  1
  Mo  Mo15  1  3.64941000  5.36060000  1.86015000  1
