# generated using pymatgen
data_Mo
_symmetry_space_group_name_H-M   'P 1'
_cell_length_a   7.27808089
_cell_length_b   7.27808089
_cell_length_c   3.63904047
_cell_angle_alpha   90.00000000
_cell_angle_beta   90.00000000
_cell_angle_gamma   90.00000000
_symmetry_Int_Tables_number   1
_chemical_formula_structural   Mo
_chemical_formula_sum   Mo16
_cell_volume   192.76165285
_cell_formula_units_Z   16
loop_
 _symmetry_equiv_pos_site_id
 _symmetry_equiv_pos_as_xyz
  1  'x, y, z'
loop_
 _atom_site_type_symbol
 _atom_site_label
 _atom_site_symmetry_multiplicity
 _atom_site_fract_x
 _atom_site_fract_y
 _atom_site_fract_z
 _atom_site_occupancy
  Mo  Mo0  1  -0.00600670  7.27956000  -0.00912832  1
  Mo  Mo1  1  1.81114000  1.82854000  -0.00238250  1
  Mo  Mo2  1  1.81313000  7.27822000  1.82050000  1
  Mo  Mo3  1  7.27871000  1.81468000  1.80737000  1
  Mo  Mo4  1  3.64762000  7.28320000  3.64864000  1
  Mo  Mo5  1  5.46282000  1.82976000  -0.01089500  1
  Mo  Mo6  1  5.45336000  0.00046016  1.81629000  1
  Mo  Mo7  1  3.63576000  1.81004000  1.81599000  1
  Mo  Mo8  1  7.26629000  3.62454000  3.64156000  1
  Mo  Mo9  1  1.82287000  5.46575000  3.63805000  1
  Mo  Mo10  1  1.82685000  3.63737000  1.81459000  1
  Mo  Mo11  1  7.27621000  5.45099000  1.82401000  1
  Mo  Mo12  1  3.62945000  3.62735000  0.00301664  1
  Mo  Mo13  1  5.47133000  5.46774000  3.64425000  1
  Mo  Mo14  1  5.45628000  3.64607000  1.82559000  1
  Mo  Mo15  1  3.65627000  5.45781000  1.83454000  1
