# generated using pymatgen
data_Mo
_symmetry_space_group_name_H-M   'P 1'
_cell_length_a   7.27806742
_cell_length_b   7.27806742
_cell_length_c   3.63903379
_cell_angle_alpha   90.00000000
_cell_angle_beta   90.00000000
_cell_angle_gamma   90.00000000
_symmetry_Int_Tables_number   1
_chemical_formula_structural   Mo
_chemical_formula_sum   Mo16
_cell_volume   192.76058556
_cell_formula_units_Z   16
loop_
 _symmetry_equiv_pos_site_id
 _symmetry_equiv_pos_as_xyz
  1  'x, y, z'
loop_
 _atom_site_type_symbol
 _atom_site_label
 _atom_site_symmetry_multiplicity
 _atom_site_fract_x
 _atom_site_fract_y
 _atom_site_fract_z
 _atom_site_occupancy
  Mo  Mo0  1  -0.00339794  7.27344000  3.63689000  1
  Mo  Mo1  1  1.81918000  1.79829000  -0.01048240  1
  Mo  Mo2  1  1.79991000  7.29116000  1.80726000  1
  Mo  Mo3  1  7.26134000  1.81748000  1.82580000  1
  Mo  Mo4  1  3.62454000  7.26785000  0.03274370  1
  Mo  Mo5  1  5.46332000  1.83733000  0.03346370  1
  Mo  Mo6  1  5.43533000  0.00222718  1.82633000  1
  Mo  Mo7  1  3.65524000  1.81733000  1.83031000  1
  Mo  Mo8  1  7.29400000  3.66304000  3.61928000  1
  Mo  Mo9  1  1.82764000  5.44829000  3.61915000  1
  Mo  Mo10  1  1.83339000  3.64940000  1.83006000  1
  Mo  Mo11  1  -0.00209798  5.46092000  1.80378000  1
  Mo  Mo12  1  3.63606000  3.65256000  3.62949000  1
  Mo  Mo13  1  5.47373000  5.43982000  3.66031000  1
  Mo  Mo14  1  5.45952000  3.61723000  1.80337000  1
  Mo  Mo15  1  3.64628000  5.46569000  1.80329000  1
