# generated using pymatgen
data_Mo
_symmetry_space_group_name_H-M   'P 1'
_cell_length_a   7.28336437
_cell_length_b   7.28336437
_cell_length_c   3.64168215
_cell_angle_alpha   90.00000000
_cell_angle_beta   90.00000000
_cell_angle_gamma   90.00000000
_symmetry_Int_Tables_number   1
_chemical_formula_structural   Mo
_chemical_formula_sum   Mo16
_cell_volume   193.18175713
_cell_formula_units_Z   16
loop_
 _symmetry_equiv_pos_site_id
 _symmetry_equiv_pos_as_xyz
  1  'x, y, z'
loop_
 _atom_site_type_symbol
 _atom_site_label
 _atom_site_symmetry_multiplicity
 _atom_site_fract_x
 _atom_site_fract_y
 _atom_site_fract_z
 _atom_site_occupancy
  Mo  Mo0  1  -0.05252680  -0.04652700  -0.01887680  1
  Mo  Mo1  1  1.68432000  1.81631000  0.02120920  1
  Mo  Mo2  1  1.80139000  7.29535000  1.75105000  1
  Mo  Mo3  1  0.02143560  1.84841000  1.83686000  1
  Mo  Mo4  1  3.65888000  0.01351700  0.05815680  1
  Mo  Mo5  1  5.52700000  1.89857000  3.67682000  1
  Mo  Mo6  1  5.41959000  7.33681000  1.78035000  1
  Mo  Mo7  1  3.57041000  1.65355000  1.85485000  1
  Mo  Mo8  1  7.28760000  3.66136000  -0.07223620  1
  Mo  Mo9  1  1.88008000  5.49609000  3.59167000  1
  Mo  Mo10  1  1.83676000  3.63009000  1.92150000  1
  Mo  Mo11  1  0.03982980  5.45396000  1.80726000  1
  Mo  Mo12  1  3.69610000  3.59914000  3.67803000  1
  Mo  Mo13  1  5.40441000  5.46752000  3.62137000  1
  Mo  Mo14  1  5.53256000  3.66161000  1.82625000  1
  Mo  Mo15  1  3.63278000  5.43825000  1.77773000  1
