# generated using pymatgen
data_Mo
_symmetry_space_group_name_H-M   'P 1'
_cell_length_a   7.28313708
_cell_length_b   7.28313708
_cell_length_c   3.64156842
_cell_angle_alpha   90.00000000
_cell_angle_beta   90.00000000
_cell_angle_gamma   90.00000000
_symmetry_Int_Tables_number   1
_chemical_formula_structural   Mo
_chemical_formula_sum   Mo16
_cell_volume   193.16366741
_cell_formula_units_Z   16
loop_
 _symmetry_equiv_pos_site_id
 _symmetry_equiv_pos_as_xyz
  1  'x, y, z'
loop_
 _atom_site_type_symbol
 _atom_site_label
 _atom_site_symmetry_multiplicity
 _atom_site_fract_x
 _atom_site_fract_y
 _atom_site_fract_z
 _atom_site_occupancy
  Mo  Mo0  1  -0.04502940  7.20715000  -0.02201530  1
  Mo  Mo1  1  1.91305000  1.82154000  -0.08880230  1
  Mo  Mo2  1  1.77887000  0.04333120  1.85966000  1
  Mo  Mo3  1  7.24267000  1.90712000  1.82789000  1
  Mo  Mo4  1  3.61192000  0.01810370  3.63083000  1
  Mo  Mo5  1  5.47515000  1.75111000  0.03740160  1
  Mo  Mo6  1  5.36335000  -0.11349800  1.87739000  1
  Mo  Mo7  1  3.65572000  1.88809000  1.88378000  1
  Mo  Mo8  1  -0.10921600  3.59684000  3.58109000  1
  Mo  Mo9  1  1.95968000  5.49843000  0.00271446  1
  Mo  Mo10  1  1.81954000  3.68724000  1.81602000  1
  Mo  Mo11  1  7.30663000  5.49743000  1.68235000  1
  Mo  Mo12  1  3.66443000  3.62588000  3.65799000  1
  Mo  Mo13  1  5.43536000  5.52422000  3.63889000  1
  Mo  Mo14  1  5.47336000  3.56591000  1.87883000  1
  Mo  Mo15  1  3.67851000  5.42194000  1.84798000  1
