# generated using pymatgen
data_Mo
_symmetry_space_group_name_H-M   'P 1'
_cell_length_a   7.28313708
_cell_length_b   7.28313708
_cell_length_c   3.64156842
_cell_angle_alpha   90.00000000
_cell_angle_beta   90.00000000
_cell_angle_gamma   90.00000000
_symmetry_Int_Tables_number   1
_chemical_formula_structural   Mo
_chemical_formula_sum   Mo16
_cell_volume   193.16366741
_cell_formula_units_Z   16
loop_
 _symmetry_equiv_pos_site_id
 _symmetry_equiv_pos_as_xyz
  1  'x, y, z'
loop_
 _atom_site_type_symbol
 _atom_site_label
 _atom_site_symmetry_multiplicity
 _atom_site_fract_x
 _atom_site_fract_y
 _atom_site_fract_z
 _atom_site_occupancy
  Mo  Mo0  1  -0.00469398  7.26647000  0.02461300  1
  Mo  Mo1  1  1.85430000  1.89764000  0.03572410  1
  Mo  Mo2  1  1.73493000  -0.00266495  1.76272000  1
  Mo  Mo3  1  7.33935000  1.86236000  1.72219000  1
  Mo  Mo4  1  3.58653000  0.01098040  3.64217000  1
  Mo  Mo5  1  5.52196000  1.90339000  -0.00735925  1
  Mo  Mo6  1  5.37639000  0.00813999  1.78095000  1
  Mo  Mo7  1  3.67658000  1.81103000  1.77399000  1
  Mo  Mo8  1  0.03409370  3.51383000  3.62766000  1
  Mo  Mo9  1  1.71142000  5.37420000  0.05885750  1
  Mo  Mo10  1  1.83308000  3.64599000  1.82609000  1
  Mo  Mo11  1  7.27177000  5.51320000  1.85600000  1
  Mo  Mo12  1  3.62302000  3.73363000  3.67361000  1
  Mo  Mo13  1  5.47208000  5.37632000  3.68076000  1
  Mo  Mo14  1  5.58488000  3.60511000  1.77123000  1
  Mo  Mo15  1  3.60832000  5.42122000  1.88278000  1
