# generated using pymatgen
data_Mo
_symmetry_space_group_name_H-M   'P 1'
_cell_length_a   7.28313708
_cell_length_b   7.28313708
_cell_length_c   3.64156842
_cell_angle_alpha   90.00000000
_cell_angle_beta   90.00000000
_cell_angle_gamma   90.00000000
_symmetry_Int_Tables_number   1
_chemical_formula_structural   Mo
_chemical_formula_sum   Mo16
_cell_volume   193.16366741
_cell_formula_units_Z   16
loop_
 _symmetry_equiv_pos_site_id
 _symmetry_equiv_pos_as_xyz
  1  'x, y, z'
loop_
 _atom_site_type_symbol
 _atom_site_label
 _atom_site_symmetry_multiplicity
 _atom_site_fract_x
 _atom_site_fract_y
 _atom_site_fract_z
 _atom_site_occupancy
  Mo  Mo0  1  0.05102270  7.19506000  -0.01875460  1
  Mo  Mo1  1  1.78756000  1.88391000  -0.06209330  1
  Mo  Mo2  1  1.89112000  -0.00612057  1.80646000  1
  Mo  Mo3  1  7.24485000  1.83357000  1.75235000  1
  Mo  Mo4  1  3.71438000  0.01704450  3.67182000  1
  Mo  Mo5  1  5.51295000  1.89219000  -0.00304070  1
  Mo  Mo6  1  5.35308000  0.01436760  1.91342000  1
  Mo  Mo7  1  3.59036000  1.78853000  1.77516000  1
  Mo  Mo8  1  -0.02191740  3.54641000  3.59644000  1
  Mo  Mo9  1  1.87983000  5.43492000  -0.03420750  1
  Mo  Mo10  1  1.72360000  3.70805000  1.72696000  1
  Mo  Mo11  1  7.22535000  5.54752000  1.84415000  1
  Mo  Mo12  1  3.66150000  3.62249000  3.61416000  1
  Mo  Mo13  1  5.53816000  5.38985000  3.69018000  1
  Mo  Mo14  1  5.38999000  3.63111000  1.84702000  1
  Mo  Mo15  1  3.68216000  5.44196000  1.99198000  1
