# generated using pymatgen
data_Mo
_symmetry_space_group_name_H-M   'P 1'
_cell_length_a   7.28313708
_cell_length_b   7.28313708
_cell_length_c   3.64156842
_cell_angle_alpha   90.00000000
_cell_angle_beta   90.00000000
_cell_angle_gamma   90.00000000
_symmetry_Int_Tables_number   1
_chemical_formula_structural   Mo
_chemical_formula_sum   Mo16
_cell_volume   193.16366741
_cell_formula_units_Z   16
loop_
 _symmetry_equiv_pos_site_id
 _symmetry_equiv_pos_as_xyz
  1  'x, y, z'
loop_
 _atom_site_type_symbol
 _atom_site_label
 _atom_site_symmetry_multiplicity
 _atom_site_fract_x
 _atom_site_fract_y
 _atom_site_fract_z
 _atom_site_occupancy
  Mo  Mo0  1  0.03262030  7.29926000  0.09653860  1
  Mo  Mo1  1  1.83917000  1.73025000  -0.04883420  1
  Mo  Mo2  1  1.79277000  -0.05400500  1.90414000  1
  Mo  Mo3  1  7.36717000  1.83820000  1.82528000  1
  Mo  Mo4  1  3.61830000  0.03239540  3.60442000  1
  Mo  Mo5  1  5.56908000  1.79254000  -0.07125770  1
  Mo  Mo6  1  5.43470000  0.02433720  1.79106000  1
  Mo  Mo7  1  3.68646000  1.86082000  1.77078000  1
  Mo  Mo8  1  -0.06540670  3.69019000  3.70662000  1
  Mo  Mo9  1  1.82787000  5.39435000  0.10320100  1
  Mo  Mo10  1  1.67393000  3.61068000  1.83931000  1
  Mo  Mo11  1  7.32520000  5.45064000  1.73994000  1
  Mo  Mo12  1  3.55784000  3.65162000  3.64316000  1
  Mo  Mo13  1  5.47434000  5.51524000  3.62923000  1
  Mo  Mo14  1  5.52108000  3.66613000  1.80262000  1
  Mo  Mo15  1  3.56888000  5.43821000  1.77579000  1
