# generated using pymatgen
data_Mo
_symmetry_space_group_name_H-M   'P 1'
_cell_length_a   7.28313708
_cell_length_b   7.28313708
_cell_length_c   3.64156842
_cell_angle_alpha   90.00000000
_cell_angle_beta   90.00000000
_cell_angle_gamma   90.00000000
_symmetry_Int_Tables_number   1
_chemical_formula_structural   Mo
_chemical_formula_sum   Mo16
_cell_volume   193.16366741
_cell_formula_units_Z   16
loop_
 _symmetry_equiv_pos_site_id
 _symmetry_equiv_pos_as_xyz
  1  'x, y, z'
loop_
 _atom_site_type_symbol
 _atom_site_label
 _atom_site_symmetry_multiplicity
 _atom_site_fract_x
 _atom_site_fract_y
 _atom_site_fract_z
 _atom_site_occupancy
  Mo  Mo0  1  -0.06703480  7.29184000  -0.02946960  1
  Mo  Mo1  1  1.87663000  1.87153000  0.14318100  1
  Mo  Mo2  1  1.74973000  -0.05161690  1.88001000  1
  Mo  Mo3  1  7.33203000  1.87979000  1.91608000  1
  Mo  Mo4  1  3.57554000  0.00201853  3.62248000  1
  Mo  Mo5  1  5.58406000  1.90893000  -0.08150280  1
  Mo  Mo6  1  5.46320000  -0.00753439  1.73253000  1
  Mo  Mo7  1  3.64243000  1.83438000  1.73857000  1
  Mo  Mo8  1  -0.08630520  3.55858000  3.61032000  1
  Mo  Mo9  1  1.72573000  5.37734000  -0.01634160  1
  Mo  Mo10  1  1.87866000  3.69830000  1.87040000  1
  Mo  Mo11  1  7.27074000  5.44573000  1.90035000  1
  Mo  Mo12  1  3.68622000  3.62021000  3.66113000  1
  Mo  Mo13  1  5.43487000  5.45077000  3.54743000  1
  Mo  Mo14  1  5.40176000  3.64009000  1.82041000  1
  Mo  Mo15  1  3.75575000  5.42051000  1.79640000  1
