# generated using pymatgen
data_Mo
_symmetry_space_group_name_H-M   'P 1'
_cell_length_a   7.28313708
_cell_length_b   7.28313708
_cell_length_c   3.64156842
_cell_angle_alpha   90.00000000
_cell_angle_beta   90.00000000
_cell_angle_gamma   90.00000000
_symmetry_Int_Tables_number   1
_chemical_formula_structural   Mo
_chemical_formula_sum   Mo16
_cell_volume   193.16366741
_cell_formula_units_Z   16
loop_
 _symmetry_equiv_pos_site_id
 _symmetry_equiv_pos_as_xyz
  1  'x, y, z'
loop_
 _atom_site_type_symbol
 _atom_site_label
 _atom_site_symmetry_multiplicity
 _atom_site_fract_x
 _atom_site_fract_y
 _atom_site_fract_z
 _atom_site_occupancy
  Mo  Mo0  1  0.02095700  7.23774000  0.05663390  1
  Mo  Mo1  1  1.85064000  1.65631000  0.01596770  1
  Mo  Mo2  1  1.82270000  0.07999590  1.84888000  1
  Mo  Mo3  1  7.23621000  1.84183000  1.87675000  1
  Mo  Mo4  1  3.75094000  0.03234360  3.61223000  1
  Mo  Mo5  1  5.39901000  1.87394000  0.07048380  1
  Mo  Mo6  1  5.51946000  0.05204420  1.74357000  1
  Mo  Mo7  1  3.65572000  1.80248000  1.72648000  1
  Mo  Mo8  1  0.00619802  3.59854000  3.59751000  1
  Mo  Mo9  1  1.83406000  5.42064000  0.06524760  1
  Mo  Mo10  1  1.87241000  3.61877000  1.84385000  1
  Mo  Mo11  1  7.19201000  5.47230000  1.86727000  1
  Mo  Mo12  1  3.66211000  3.66764000  3.58121000  1
  Mo  Mo13  1  5.34787000  5.48196000  3.63973000  1
  Mo  Mo14  1  5.40419000  3.70112000  1.76669000  1
  Mo  Mo15  1  3.64952000  5.40321000  1.79950000  1
