# generated using pymatgen
data_Mo
_symmetry_space_group_name_H-M   'P 1'
_cell_length_a   7.28313708
_cell_length_b   7.28313708
_cell_length_c   3.64156842
_cell_angle_alpha   90.00000000
_cell_angle_beta   90.00000000
_cell_angle_gamma   90.00000000
_symmetry_Int_Tables_number   1
_chemical_formula_structural   Mo
_chemical_formula_sum   Mo16
_cell_volume   193.16366741
_cell_formula_units_Z   16
loop_
 _symmetry_equiv_pos_site_id
 _symmetry_equiv_pos_as_xyz
  1  'x, y, z'
loop_
 _atom_site_type_symbol
 _atom_site_label
 _atom_site_symmetry_multiplicity
 _atom_site_fract_x
 _atom_site_fract_y
 _atom_site_fract_z
 _atom_site_occupancy
  Mo  Mo0  1  -0.01244530  7.19809000  -0.03715760  1
  Mo  Mo1  1  1.79061000  1.82479000  -0.00857085  1
  Mo  Mo2  1  1.81866000  -0.03391230  1.76480000  1
  Mo  Mo3  1  7.35934000  1.80732000  1.79045000  1
  Mo  Mo4  1  3.63126000  0.08582320  3.74482000  1
  Mo  Mo5  1  5.35319000  1.81966000  -0.06598650  1
  Mo  Mo6  1  5.43861000  -0.05470970  1.79726000  1
  Mo  Mo7  1  3.73634000  1.86483000  1.83023000  1
  Mo  Mo8  1  0.04450930  3.56313000  3.56008000  1
  Mo  Mo9  1  1.83913000  5.56485000  0.08878800  1
  Mo  Mo10  1  1.79943000  3.62968000  1.81631000  1
  Mo  Mo11  1  7.26302000  5.50797000  1.82442000  1
  Mo  Mo12  1  3.50903000  3.67323000  3.70064000  1
  Mo  Mo13  1  5.38036000  5.43519000  3.69486000  1
  Mo  Mo14  1  5.62334000  3.61760000  1.75327000  1
  Mo  Mo15  1  3.64961000  5.43734000  1.85779000  1
