# generated using pymatgen
data_Mo
_symmetry_space_group_name_H-M   'P 1'
_cell_length_a   7.28313708
_cell_length_b   7.28313708
_cell_length_c   3.64156842
_cell_angle_alpha   90.00000000
_cell_angle_beta   90.00000000
_cell_angle_gamma   90.00000000
_symmetry_Int_Tables_number   1
_chemical_formula_structural   Mo
_chemical_formula_sum   Mo16
_cell_volume   193.16366741
_cell_formula_units_Z   16
loop_
 _symmetry_equiv_pos_site_id
 _symmetry_equiv_pos_as_xyz
  1  'x, y, z'
loop_
 _atom_site_type_symbol
 _atom_site_label
 _atom_site_symmetry_multiplicity
 _atom_site_fract_x
 _atom_site_fract_y
 _atom_site_fract_z
 _atom_site_occupancy
  Mo  Mo0  1  0.02463880  7.16508000  -0.06465530  1
  Mo  Mo1  1  1.80743000  1.76497000  -0.06233520  1
  Mo  Mo2  1  1.72382000  0.07843430  1.74924000  1
  Mo  Mo3  1  7.27188000  1.78573000  1.88251000  1
  Mo  Mo4  1  3.65621000  -0.00605870  3.58902000  1
  Mo  Mo5  1  5.48380000  1.83922000  0.03916680  1
  Mo  Mo6  1  5.49695000  -0.02950790  1.88339000  1
  Mo  Mo7  1  3.61409000  1.79112000  1.87022000  1
  Mo  Mo8  1  0.12001400  3.61445000  3.66746000  1
  Mo  Mo9  1  1.80576000  5.55316000  -0.05401300  1
  Mo  Mo10  1  1.86373000  3.62089000  1.75941000  1
  Mo  Mo11  1  7.26335000  5.54089000  1.92051000  1
  Mo  Mo12  1  3.65248000  3.67998000  3.69119000  1
  Mo  Mo13  1  5.41751000  5.38781000  3.63795000  1
  Mo  Mo14  1  5.47108000  3.65119000  1.83472000  1
  Mo  Mo15  1  3.55125000  5.50350000  1.76824000  1
