# generated using pymatgen
data_Mo
_symmetry_space_group_name_H-M   'P 1'
_cell_length_a   7.28313708
_cell_length_b   7.28313708
_cell_length_c   3.64156842
_cell_angle_alpha   90.00000000
_cell_angle_beta   90.00000000
_cell_angle_gamma   90.00000000
_symmetry_Int_Tables_number   1
_chemical_formula_structural   Mo
_chemical_formula_sum   Mo16
_cell_volume   193.16366741
_cell_formula_units_Z   16
loop_
 _symmetry_equiv_pos_site_id
 _symmetry_equiv_pos_as_xyz
  1  'x, y, z'
loop_
 _atom_site_type_symbol
 _atom_site_label
 _atom_site_symmetry_multiplicity
 _atom_site_fract_x
 _atom_site_fract_y
 _atom_site_fract_z
 _atom_site_occupancy
  Mo  Mo0  1  -0.07195460  7.32204000  -0.01171840  1
  Mo  Mo1  1  1.86602000  1.77503000  -0.03734400  1
  Mo  Mo2  1  1.87786000  -0.09465190  1.86805000  1
  Mo  Mo3  1  7.31726000  1.76175000  1.92481000  1
  Mo  Mo4  1  3.67895000  0.01027510  3.55566000  1
  Mo  Mo5  1  5.35253000  1.80074000  -0.06177160  1
  Mo  Mo6  1  5.49488000  0.06645160  1.75150000  1
  Mo  Mo7  1  3.70901000  1.90692000  1.78779000  1
  Mo  Mo8  1  -0.00061714  3.74342000  3.66291000  1
  Mo  Mo9  1  1.81042000  5.42968000  0.04808970  1
  Mo  Mo10  1  1.85644000  3.60178000  1.91693000  1
  Mo  Mo11  1  7.22453000  5.36464000  1.84059000  1
  Mo  Mo12  1  3.62451000  3.64121000  3.66192000  1
  Mo  Mo13  1  5.31260000  5.50436000  3.56473000  1
  Mo  Mo14  1  5.49974000  3.63996000  1.84835000  1
  Mo  Mo15  1  3.67180000  5.46726000  1.79151000  1
