# generated using pymatgen
data_Mo
_symmetry_space_group_name_H-M   'P 1'
_cell_length_a   7.27806742
_cell_length_b   7.27806742
_cell_length_c   3.63903379
_cell_angle_alpha   90.00000000
_cell_angle_beta   90.00000000
_cell_angle_gamma   90.00000000
_symmetry_Int_Tables_number   1
_chemical_formula_structural   Mo
_chemical_formula_sum   Mo16
_cell_volume   192.76058556
_cell_formula_units_Z   16
loop_
 _symmetry_equiv_pos_site_id
 _symmetry_equiv_pos_as_xyz
  1  'x, y, z'
loop_
 _atom_site_type_symbol
 _atom_site_label
 _atom_site_symmetry_multiplicity
 _atom_site_fract_x
 _atom_site_fract_y
 _atom_site_fract_z
 _atom_site_occupancy
  Mo  Mo0  1  0.01655580  7.28323000  3.62266000  1
  Mo  Mo1  1  1.79764000  1.80943000  0.00001066  1
  Mo  Mo2  1  1.83862000  7.27340000  1.81806000  1
  Mo  Mo3  1  7.25353000  1.82846000  1.82219000  1
  Mo  Mo4  1  3.63183000  7.27178000  0.01375940  1
  Mo  Mo5  1  5.46882000  1.81881000  -0.02831410  1
  Mo  Mo6  1  5.46080000  0.00206543  1.82403000  1
  Mo  Mo7  1  3.65379000  1.81834000  1.79710000  1
  Mo  Mo8  1  7.28965000  3.63236000  3.65732000  1
  Mo  Mo9  1  1.80810000  5.46595000  3.63415000  1
  Mo  Mo10  1  1.83745000  3.65663000  1.82331000  1
  Mo  Mo11  1  -0.00040107  5.45670000  1.83560000  1
  Mo  Mo12  1  3.61872000  3.62579000  3.65558000  1
  Mo  Mo13  1  5.44727000  5.45195000  3.64356000  1
  Mo  Mo14  1  5.45193000  3.65140000  1.82297000  1
  Mo  Mo15  1  3.64969000  5.45577000  1.80903000  1
