# generated using pymatgen
data_Mo
_symmetry_space_group_name_H-M   'P 1'
_cell_length_a   7.28313708
_cell_length_b   7.28313708
_cell_length_c   3.64156842
_cell_angle_alpha   90.00000000
_cell_angle_beta   90.00000000
_cell_angle_gamma   90.00000000
_symmetry_Int_Tables_number   1
_chemical_formula_structural   Mo
_chemical_formula_sum   Mo16
_cell_volume   193.16366741
_cell_formula_units_Z   16
loop_
 _symmetry_equiv_pos_site_id
 _symmetry_equiv_pos_as_xyz
  1  'x, y, z'
loop_
 _atom_site_type_symbol
 _atom_site_label
 _atom_site_symmetry_multiplicity
 _atom_site_fract_x
 _atom_site_fract_y
 _atom_site_fract_z
 _atom_site_occupancy
  Mo  Mo0  1  -0.03863660  7.21288000  -0.04327450  1
  Mo  Mo1  1  1.80970000  1.87667000  0.08400770  1
  Mo  Mo2  1  1.79906000  0.08695090  1.82873000  1
  Mo  Mo3  1  7.15712000  1.86841000  1.92146000  1
  Mo  Mo4  1  3.69920000  -0.01797010  3.65250000  1
  Mo  Mo5  1  5.47089000  1.79039000  -0.01560780  1
  Mo  Mo6  1  5.42464000  0.01162350  1.77541000  1
  Mo  Mo7  1  3.69357000  1.76773000  1.77382000  1
  Mo  Mo8  1  0.09896020  3.68949000  3.66524000  1
  Mo  Mo9  1  1.82158000  5.44094000  0.00013821  1
  Mo  Mo10  1  1.83730000  3.65875000  1.74961000  1
  Mo  Mo11  1  7.18296000  5.45596000  1.80583000  1
  Mo  Mo12  1  3.70945000  3.60250000  3.71559000  1
  Mo  Mo13  1  5.40754000  5.38880000  3.60989000  1
  Mo  Mo14  1  5.47502000  3.62284000  1.78295000  1
  Mo  Mo15  1  3.67564000  5.48489000  1.80569000  1
