# generated using pymatgen
data_Mo
_symmetry_space_group_name_H-M   'P 1'
_cell_length_a   7.28313708
_cell_length_b   7.28313708
_cell_length_c   3.64156842
_cell_angle_alpha   90.00000000
_cell_angle_beta   90.00000000
_cell_angle_gamma   90.00000000
_symmetry_Int_Tables_number   1
_chemical_formula_structural   Mo
_chemical_formula_sum   Mo16
_cell_volume   193.16366741
_cell_formula_units_Z   16
loop_
 _symmetry_equiv_pos_site_id
 _symmetry_equiv_pos_as_xyz
  1  'x, y, z'
loop_
 _atom_site_type_symbol
 _atom_site_label
 _atom_site_symmetry_multiplicity
 _atom_site_fract_x
 _atom_site_fract_y
 _atom_site_fract_z
 _atom_site_occupancy
  Mo  Mo0  1  -0.02444530  7.22605000  -0.05534330  1
  Mo  Mo1  1  1.80378000  1.77378000  0.02711410  1
  Mo  Mo2  1  1.83051000  0.11460600  1.72984000  1
  Mo  Mo3  1  7.14713000  1.84377000  1.77053000  1
  Mo  Mo4  1  3.71236000  -0.01171000  3.65228000  1
  Mo  Mo5  1  5.35487000  1.81625000  0.06138790  1
  Mo  Mo6  1  5.45535000  -0.00628864  1.74455000  1
  Mo  Mo7  1  3.62202000  1.74663000  1.77978000  1
  Mo  Mo8  1  0.05929490  3.64381000  3.65679000  1
  Mo  Mo9  1  1.88735000  5.49294000  -0.02346490  1
  Mo  Mo10  1  1.87007000  3.71138000  1.82306000  1
  Mo  Mo11  1  7.28843000  5.47294000  1.88907000  1
  Mo  Mo12  1  3.65628000  3.64050000  3.63949000  1
  Mo  Mo13  1  5.41323000  5.44110000  3.76211000  1
  Mo  Mo14  1  5.47651000  3.62938000  1.83308000  1
  Mo  Mo15  1  3.67129000  5.40572000  1.82173000  1
