# generated using pymatgen
data_Mo
_symmetry_space_group_name_H-M   'P 1'
_cell_length_a   7.28313708
_cell_length_b   7.28313708
_cell_length_c   3.64156842
_cell_angle_alpha   90.00000000
_cell_angle_beta   90.00000000
_cell_angle_gamma   90.00000000
_symmetry_Int_Tables_number   1
_chemical_formula_structural   Mo
_chemical_formula_sum   Mo16
_cell_volume   193.16366741
_cell_formula_units_Z   16
loop_
 _symmetry_equiv_pos_site_id
 _symmetry_equiv_pos_as_xyz
  1  'x, y, z'
loop_
 _atom_site_type_symbol
 _atom_site_label
 _atom_site_symmetry_multiplicity
 _atom_site_fract_x
 _atom_site_fract_y
 _atom_site_fract_z
 _atom_site_occupancy
  Mo  Mo0  1  0.01413310  7.28647000  0.03759000  1
  Mo  Mo1  1  1.78922000  1.88924000  0.01234270  1
  Mo  Mo2  1  1.83509000  0.02686020  1.93765000  1
  Mo  Mo3  1  7.31449000  1.77508000  1.90220000  1
  Mo  Mo4  1  3.65075000  -0.03624400  3.55737000  1
  Mo  Mo5  1  5.52058000  1.91353000  -0.08026560  1
  Mo  Mo6  1  5.45210000  -0.01376950  1.79830000  1
  Mo  Mo7  1  3.60078000  1.82776000  1.82498000  1
  Mo  Mo8  1  0.08075200  3.66609000  3.69324000  1
  Mo  Mo9  1  1.64661000  5.42387000  -0.03726340  1
  Mo  Mo10  1  1.77970000  3.59082000  1.86824000  1
  Mo  Mo11  1  7.29268000  5.44422000  1.71544000  1
  Mo  Mo12  1  3.62258000  3.68077000  3.58928000  1
  Mo  Mo13  1  5.53378000  5.43427000  3.68226000  1
  Mo  Mo14  1  5.55815000  3.56578000  1.85523000  1
  Mo  Mo15  1  3.53260000  5.46611000  1.75541000  1
