# generated using pymatgen
data_Mo
_symmetry_space_group_name_H-M   'P 1'
_cell_length_a   7.28313708
_cell_length_b   7.28313708
_cell_length_c   3.64156842
_cell_angle_alpha   90.00000000
_cell_angle_beta   90.00000000
_cell_angle_gamma   90.00000000
_symmetry_Int_Tables_number   1
_chemical_formula_structural   Mo
_chemical_formula_sum   Mo16
_cell_volume   193.16366741
_cell_formula_units_Z   16
loop_
 _symmetry_equiv_pos_site_id
 _symmetry_equiv_pos_as_xyz
  1  'x, y, z'
loop_
 _atom_site_type_symbol
 _atom_site_label
 _atom_site_symmetry_multiplicity
 _atom_site_fract_x
 _atom_site_fract_y
 _atom_site_fract_z
 _atom_site_occupancy
  Mo  Mo0  1  -0.00358814  7.32243000  0.02661310  1
  Mo  Mo1  1  1.72205000  1.88521000  -0.04091720  1
  Mo  Mo2  1  1.80730000  -0.05206290  1.81449000  1
  Mo  Mo3  1  7.30438000  1.81316000  1.80975000  1
  Mo  Mo4  1  3.59234000  -0.05737670  3.73588000  1
  Mo  Mo5  1  5.42214000  1.77736000  0.05836130  1
  Mo  Mo6  1  5.61191000  -0.02256030  1.81584000  1
  Mo  Mo7  1  3.56662000  1.80233000  1.79777000  1
  Mo  Mo8  1  0.04122360  3.71054000  3.63218000  1
  Mo  Mo9  1  1.78022000  5.53068000  -0.05073420  1
  Mo  Mo10  1  1.85764000  3.63551000  1.73344000  1
  Mo  Mo11  1  7.30121000  5.42477000  1.74291000  1
  Mo  Mo12  1  3.62678000  3.57336000  3.71386000  1
  Mo  Mo13  1  5.45981000  5.43427000  3.65380000  1
  Mo  Mo14  1  5.50014000  3.56259000  1.82248000  1
  Mo  Mo15  1  3.63385000  5.60067000  1.84628000  1
