# generated using pymatgen
data_Mo
_symmetry_space_group_name_H-M   'P 1'
_cell_length_a   7.28313708
_cell_length_b   7.28313708
_cell_length_c   3.64156842
_cell_angle_alpha   90.00000000
_cell_angle_beta   90.00000000
_cell_angle_gamma   90.00000000
_symmetry_Int_Tables_number   1
_chemical_formula_structural   Mo
_chemical_formula_sum   Mo16
_cell_volume   193.16366741
_cell_formula_units_Z   16
loop_
 _symmetry_equiv_pos_site_id
 _symmetry_equiv_pos_as_xyz
  1  'x, y, z'
loop_
 _atom_site_type_symbol
 _atom_site_label
 _atom_site_symmetry_multiplicity
 _atom_site_fract_x
 _atom_site_fract_y
 _atom_site_fract_z
 _atom_site_occupancy
  Mo  Mo0  1  0.03891780  7.28774000  -0.04324630  1
  Mo  Mo1  1  1.72448000  1.92223000  0.04452560  1
  Mo  Mo2  1  1.90441000  0.03665120  1.71758000  1
  Mo  Mo3  1  7.23908000  1.67356000  1.78591000  1
  Mo  Mo4  1  3.61923000  -0.00974481  3.69481000  1
  Mo  Mo5  1  5.38992000  1.78886000  0.06637740  1
  Mo  Mo6  1  5.46468000  0.00003123  1.78320000  1
  Mo  Mo7  1  3.62375000  1.79929000  1.78062000  1
  Mo  Mo8  1  0.00467294  3.70038000  3.63790000  1
  Mo  Mo9  1  1.81533000  5.45176000  -0.05389320  1
  Mo  Mo10  1  1.89302000  3.62369000  1.75383000  1
  Mo  Mo11  1  7.25952000  5.52259000  1.86172000  1
  Mo  Mo12  1  3.75129000  3.61080000  3.70069000  1
  Mo  Mo13  1  5.41667000  5.39981000  3.68646000  1
  Mo  Mo14  1  5.41459000  3.68012000  1.83695000  1
  Mo  Mo15  1  3.66445000  5.45310000  1.85858000  1
