# generated using pymatgen
data_Mo
_symmetry_space_group_name_H-M   'P 1'
_cell_length_a   7.28313708
_cell_length_b   7.28313708
_cell_length_c   3.64156842
_cell_angle_alpha   90.00000000
_cell_angle_beta   90.00000000
_cell_angle_gamma   90.00000000
_symmetry_Int_Tables_number   1
_chemical_formula_structural   Mo
_chemical_formula_sum   Mo16
_cell_volume   193.16366741
_cell_formula_units_Z   16
loop_
 _symmetry_equiv_pos_site_id
 _symmetry_equiv_pos_as_xyz
  1  'x, y, z'
loop_
 _atom_site_type_symbol
 _atom_site_label
 _atom_site_symmetry_multiplicity
 _atom_site_fract_x
 _atom_site_fract_y
 _atom_site_fract_z
 _atom_site_occupancy
  Mo  Mo0  1  -0.02296220  7.31538000  0.01937550  1
  Mo  Mo1  1  1.74622000  1.96824000  0.04223080  1
  Mo  Mo2  1  1.94539000  0.01547850  1.82429000  1
  Mo  Mo3  1  7.21307000  1.74049000  1.82416000  1
  Mo  Mo4  1  3.60951000  -0.00949608  3.71863000  1
  Mo  Mo5  1  5.39669000  1.75163000  0.05079490  1
  Mo  Mo6  1  5.39055000  0.01218930  1.84724000  1
  Mo  Mo7  1  3.68249000  1.76021000  1.85880000  1
  Mo  Mo8  1  0.03771110  3.71863000  3.55443000  1
  Mo  Mo9  1  1.80824000  5.43910000  -0.04796870  1
  Mo  Mo10  1  1.88863000  3.67022000  1.76679000  1
  Mo  Mo11  1  7.23528000  5.43267000  1.83921000  1
  Mo  Mo12  1  3.76001000  3.62167000  3.64825000  1
  Mo  Mo13  1  5.40162000  5.36750000  3.55133000  1
  Mo  Mo14  1  5.49039000  3.62839000  1.76990000  1
  Mo  Mo15  1  3.64117000  5.50856000  1.84453000  1
