# generated using pymatgen
data_Mo
_symmetry_space_group_name_H-M   'P 1'
_cell_length_a   7.28313708
_cell_length_b   7.28313708
_cell_length_c   3.64156842
_cell_angle_alpha   90.00000000
_cell_angle_beta   90.00000000
_cell_angle_gamma   90.00000000
_symmetry_Int_Tables_number   1
_chemical_formula_structural   Mo
_chemical_formula_sum   Mo16
_cell_volume   193.16366741
_cell_formula_units_Z   16
loop_
 _symmetry_equiv_pos_site_id
 _symmetry_equiv_pos_as_xyz
  1  'x, y, z'
loop_
 _atom_site_type_symbol
 _atom_site_label
 _atom_site_symmetry_multiplicity
 _atom_site_fract_x
 _atom_site_fract_y
 _atom_site_fract_z
 _atom_site_occupancy
  Mo  Mo0  1  0.02026170  7.23381000  0.03291680  1
  Mo  Mo1  1  1.82546000  1.77624000  0.01250690  1
  Mo  Mo2  1  1.67586000  0.07374720  1.87320000  1
  Mo  Mo3  1  7.29856000  1.86029000  1.85525000  1
  Mo  Mo4  1  3.58907000  0.02328650  3.65761000  1
  Mo  Mo5  1  5.53590000  1.77712000  0.10000100  1
  Mo  Mo6  1  5.42709000  -0.01575340  1.92000000  1
  Mo  Mo7  1  3.54697000  1.70602000  1.89461000  1
  Mo  Mo8  1  -0.00213943  3.58309000  3.50016000  1
  Mo  Mo9  1  1.88142000  5.52549000  -0.03180540  1
  Mo  Mo10  1  1.87247000  3.76063000  1.77458000  1
  Mo  Mo11  1  7.30600000  5.51856000  1.78132000  1
  Mo  Mo12  1  3.63895000  3.66694000  3.56831000  1
  Mo  Mo13  1  5.55198000  5.41577000  3.57758000  1
  Mo  Mo14  1  5.39518000  3.59866000  1.78268000  1
  Mo  Mo15  1  3.66096000  5.43697000  1.81307000  1
