# generated using pymatgen
data_Mo
_symmetry_space_group_name_H-M   'P 1'
_cell_length_a   7.27806742
_cell_length_b   7.27806742
_cell_length_c   3.63903379
_cell_angle_alpha   90.00000000
_cell_angle_beta   90.00000000
_cell_angle_gamma   90.00000000
_symmetry_Int_Tables_number   1
_chemical_formula_structural   Mo
_chemical_formula_sum   Mo16
_cell_volume   192.76058556
_cell_formula_units_Z   16
loop_
 _symmetry_equiv_pos_site_id
 _symmetry_equiv_pos_as_xyz
  1  'x, y, z'
loop_
 _atom_site_type_symbol
 _atom_site_label
 _atom_site_symmetry_multiplicity
 _atom_site_fract_x
 _atom_site_fract_y
 _atom_site_fract_z
 _atom_site_occupancy
  Mo  Mo0  1  -0.01743180  7.28968000  3.60920000  1
  Mo  Mo1  1  1.83366000  1.80526000  0.01122510  1
  Mo  Mo2  1  1.82456000  7.27101000  1.80364000  1
  Mo  Mo3  1  7.29922000  1.83622000  1.81366000  1
  Mo  Mo4  1  3.66371000  7.29753000  -0.00040017  1
  Mo  Mo5  1  5.45192000  1.80905000  -0.00918030  1
  Mo  Mo6  1  5.45292000  -0.02103690  1.81535000  1
  Mo  Mo7  1  3.63246000  1.82791000  1.78812000  1
  Mo  Mo8  1  7.27370000  3.62354000  3.67609000  1
  Mo  Mo9  1  1.83067000  5.44501000  3.65830000  1
  Mo  Mo10  1  1.80907000  3.64350000  1.84502000  1
  Mo  Mo11  1  -0.01180780  5.45027000  1.84271000  1
  Mo  Mo12  1  3.63054000  3.64118000  3.64013000  1
  Mo  Mo13  1  5.46756000  5.46042000  3.64081000  1
  Mo  Mo14  1  5.44262000  3.67106000  1.80338000  1
  Mo  Mo15  1  3.64062000  5.45144000  1.81297000  1
