# generated using pymatgen
data_Mo
_symmetry_space_group_name_H-M   'P 1'
_cell_length_a   7.28313708
_cell_length_b   7.28313708
_cell_length_c   3.64156842
_cell_angle_alpha   90.00000000
_cell_angle_beta   90.00000000
_cell_angle_gamma   90.00000000
_symmetry_Int_Tables_number   1
_chemical_formula_structural   Mo
_chemical_formula_sum   Mo16
_cell_volume   193.16366741
_cell_formula_units_Z   16
loop_
 _symmetry_equiv_pos_site_id
 _symmetry_equiv_pos_as_xyz
  1  'x, y, z'
loop_
 _atom_site_type_symbol
 _atom_site_label
 _atom_site_symmetry_multiplicity
 _atom_site_fract_x
 _atom_site_fract_y
 _atom_site_fract_z
 _atom_site_occupancy
  Mo  Mo0  1  0.05173880  7.31194000  -0.04900660  1
  Mo  Mo1  1  1.79925000  1.75753000  0.06525470  1
  Mo  Mo2  1  1.81652000  -0.03673450  1.79356000  1
  Mo  Mo3  1  7.27607000  1.85411000  1.83388000  1
  Mo  Mo4  1  3.65815000  -0.02229870  3.58468000  1
  Mo  Mo5  1  5.47450000  1.81163000  0.07435250  1
  Mo  Mo6  1  5.47692000  -0.00339654  1.83614000  1
  Mo  Mo7  1  3.60770000  1.70842000  1.90527000  1
  Mo  Mo8  1  -0.10980000  3.56714000  3.61519000  1
  Mo  Mo9  1  1.76624000  5.47829000  -0.06031410  1
  Mo  Mo10  1  1.83134000  3.64132000  1.88120000  1
  Mo  Mo11  1  7.34741000  5.50720000  1.82047000  1
  Mo  Mo12  1  3.55828000  3.71613000  3.60407000  1
  Mo  Mo13  1  5.48975000  5.49087000  3.55890000  1
  Mo  Mo14  1  5.47244000  3.65286000  1.85562000  1
  Mo  Mo15  1  3.70749000  5.50585000  1.79273000  1
