# generated using pymatgen
data_Mo
_symmetry_space_group_name_H-M   'P 1'
_cell_length_a   7.28313708
_cell_length_b   7.28313708
_cell_length_c   3.64156842
_cell_angle_alpha   90.00000000
_cell_angle_beta   90.00000000
_cell_angle_gamma   90.00000000
_symmetry_Int_Tables_number   1
_chemical_formula_structural   Mo
_chemical_formula_sum   Mo16
_cell_volume   193.16366741
_cell_formula_units_Z   16
loop_
 _symmetry_equiv_pos_site_id
 _symmetry_equiv_pos_as_xyz
  1  'x, y, z'
loop_
 _atom_site_type_symbol
 _atom_site_label
 _atom_site_symmetry_multiplicity
 _atom_site_fract_x
 _atom_site_fract_y
 _atom_site_fract_z
 _atom_site_occupancy
  Mo  Mo0  1  -0.04679930  7.28506000  0.04370190  1
  Mo  Mo1  1  1.88919000  1.81018000  -0.04778050  1
  Mo  Mo2  1  1.73263000  0.01146140  1.84017000  1
  Mo  Mo3  1  7.27308000  1.79274000  1.75474000  1
  Mo  Mo4  1  3.69280000  -0.02251670  3.62365000  1
  Mo  Mo5  1  5.43011000  1.89584000  -0.10177100  1
  Mo  Mo6  1  5.46923000  0.02197590  1.81336000  1
  Mo  Mo7  1  3.63567000  1.86553000  1.78661000  1
  Mo  Mo8  1  0.05822840  3.68031000  3.72589000  1
  Mo  Mo9  1  1.89650000  5.42374000  0.07980360  1
  Mo  Mo10  1  1.83516000  3.66048000  1.87368000  1
  Mo  Mo11  1  7.21221000  5.39286000  1.80170000  1
  Mo  Mo12  1  3.71817000  3.66809000  3.60875000  1
  Mo  Mo13  1  5.48529000  5.38253000  3.67313000  1
  Mo  Mo14  1  5.33834000  3.63480000  1.78341000  1
  Mo  Mo15  1  3.60417000  5.43778000  1.85295000  1
