# generated using pymatgen
data_Mo
_symmetry_space_group_name_H-M   'P 1'
_cell_length_a   7.28313708
_cell_length_b   7.28313708
_cell_length_c   3.64156842
_cell_angle_alpha   90.00000000
_cell_angle_beta   90.00000000
_cell_angle_gamma   90.00000000
_symmetry_Int_Tables_number   1
_chemical_formula_structural   Mo
_chemical_formula_sum   Mo16
_cell_volume   193.16366741
_cell_formula_units_Z   16
loop_
 _symmetry_equiv_pos_site_id
 _symmetry_equiv_pos_as_xyz
  1  'x, y, z'
loop_
 _atom_site_type_symbol
 _atom_site_label
 _atom_site_symmetry_multiplicity
 _atom_site_fract_x
 _atom_site_fract_y
 _atom_site_fract_z
 _atom_site_occupancy
  Mo  Mo0  1  0.02753690  7.31521000  -0.00726011  1
  Mo  Mo1  1  1.70577000  1.90432000  -0.03164750  1
  Mo  Mo2  1  1.83763000  -0.08709420  1.75011000  1
  Mo  Mo3  1  7.28057000  1.78875000  1.80064000  1
  Mo  Mo4  1  3.60087000  -0.02380880  3.61082000  1
  Mo  Mo5  1  5.46288000  1.86096000  -0.01364350  1
  Mo  Mo6  1  5.61397000  0.06781200  1.81896000  1
  Mo  Mo7  1  3.59913000  1.80866000  1.79736000  1
  Mo  Mo8  1  0.01284790  3.67448000  3.69455000  1
  Mo  Mo9  1  1.75412000  5.42562000  -0.02426860  1
  Mo  Mo10  1  1.84457000  3.56283000  1.85462000  1
  Mo  Mo11  1  7.26268000  5.39697000  1.89807000  1
  Mo  Mo12  1  3.64215000  3.57270000  3.69879000  1
  Mo  Mo13  1  5.46208000  5.46151000  3.64333000  1
  Mo  Mo14  1  5.48050000  3.63522000  1.81969000  1
  Mo  Mo15  1  3.63670000  5.57671000  1.80189000  1
