# generated using pymatgen
data_Mo
_symmetry_space_group_name_H-M   'P 1'
_cell_length_a   7.28313708
_cell_length_b   7.28313708
_cell_length_c   3.64156842
_cell_angle_alpha   90.00000000
_cell_angle_beta   90.00000000
_cell_angle_gamma   90.00000000
_symmetry_Int_Tables_number   1
_chemical_formula_structural   Mo
_chemical_formula_sum   Mo16
_cell_volume   193.16366741
_cell_formula_units_Z   16
loop_
 _symmetry_equiv_pos_site_id
 _symmetry_equiv_pos_as_xyz
  1  'x, y, z'
loop_
 _atom_site_type_symbol
 _atom_site_label
 _atom_site_symmetry_multiplicity
 _atom_site_fract_x
 _atom_site_fract_y
 _atom_site_fract_z
 _atom_site_occupancy
  Mo  Mo0  1  -0.00158047  7.27717000  -0.00275158  1
  Mo  Mo1  1  1.79678000  1.84941000  -0.01318040  1
  Mo  Mo2  1  1.83159000  -0.07754870  1.85233000  1
  Mo  Mo3  1  7.30662000  1.91393000  1.90684000  1
  Mo  Mo4  1  3.63277000  0.04761890  3.63849000  1
  Mo  Mo5  1  5.37590000  1.95276000  -0.08207260  1
  Mo  Mo6  1  5.53586000  -0.00647324  1.76359000  1
  Mo  Mo7  1  3.74257000  1.80825000  1.80877000  1
  Mo  Mo8  1  -0.04225870  3.63728000  3.60282000  1
  Mo  Mo9  1  1.93075000  5.43457000  0.06381810  1
  Mo  Mo10  1  1.84399000  3.61103000  1.82928000  1
  Mo  Mo11  1  7.23173000  5.53022000  1.85873000  1
  Mo  Mo12  1  3.47331000  3.61084000  3.60163000  1
  Mo  Mo13  1  5.35441000  5.37600000  3.63373000  1
  Mo  Mo14  1  5.53886000  3.67309000  1.82366000  1
  Mo  Mo15  1  3.67270000  5.30272000  1.82631000  1
