# generated using pymatgen
data_Mo
_symmetry_space_group_name_H-M   'P 1'
_cell_length_a   7.28313708
_cell_length_b   7.28313708
_cell_length_c   3.64156842
_cell_angle_alpha   90.00000000
_cell_angle_beta   90.00000000
_cell_angle_gamma   90.00000000
_symmetry_Int_Tables_number   1
_chemical_formula_structural   Mo
_chemical_formula_sum   Mo16
_cell_volume   193.16366741
_cell_formula_units_Z   16
loop_
 _symmetry_equiv_pos_site_id
 _symmetry_equiv_pos_as_xyz
  1  'x, y, z'
loop_
 _atom_site_type_symbol
 _atom_site_label
 _atom_site_symmetry_multiplicity
 _atom_site_fract_x
 _atom_site_fract_y
 _atom_site_fract_z
 _atom_site_occupancy
  Mo  Mo0  1  0.00442276  7.32244000  0.05004200  1
  Mo  Mo1  1  1.82563000  1.75685000  -0.00668432  1
  Mo  Mo2  1  1.73402000  -0.04377080  1.81570000  1
  Mo  Mo3  1  7.31245000  1.95585000  1.77925000  1
  Mo  Mo4  1  3.65507000  -0.08008230  3.65959000  1
  Mo  Mo5  1  5.44375000  1.87434000  0.00483994  1
  Mo  Mo6  1  5.49879000  0.03402470  1.75660000  1
  Mo  Mo7  1  3.59950000  1.76176000  1.89590000  1
  Mo  Mo8  1  0.03256180  3.58194000  3.70835000  1
  Mo  Mo9  1  1.87746000  5.47800000  -0.00951692  1
  Mo  Mo10  1  1.73005000  3.60816000  1.79277000  1
  Mo  Mo11  1  7.25034000  5.46632000  1.79680000  1
  Mo  Mo12  1  3.63030000  3.63002000  3.69191000  1
  Mo  Mo13  1  5.56205000  5.50496000  3.62171000  1
  Mo  Mo14  1  5.48236000  3.64730000  1.80418000  1
  Mo  Mo15  1  3.58525000  5.44276000  1.75056000  1
