# generated using pymatgen
data_Mo
_symmetry_space_group_name_H-M   'P 1'
_cell_length_a   7.28313708
_cell_length_b   7.28313708
_cell_length_c   3.64156842
_cell_angle_alpha   90.00000000
_cell_angle_beta   90.00000000
_cell_angle_gamma   90.00000000
_symmetry_Int_Tables_number   1
_chemical_formula_structural   Mo
_chemical_formula_sum   Mo16
_cell_volume   193.16366741
_cell_formula_units_Z   16
loop_
 _symmetry_equiv_pos_site_id
 _symmetry_equiv_pos_as_xyz
  1  'x, y, z'
loop_
 _atom_site_type_symbol
 _atom_site_label
 _atom_site_symmetry_multiplicity
 _atom_site_fract_x
 _atom_site_fract_y
 _atom_site_fract_z
 _atom_site_occupancy
  Mo  Mo0  1  0.03382410  7.16615000  -0.02970090  1
  Mo  Mo1  1  1.79667000  1.75463000  -0.06544080  1
  Mo  Mo2  1  1.87233000  0.01473940  1.84136000  1
  Mo  Mo3  1  7.28059000  1.84156000  1.90019000  1
  Mo  Mo4  1  3.76380000  0.00541465  3.62985000  1
  Mo  Mo5  1  5.41868000  1.85638000  -0.03352060  1
  Mo  Mo6  1  5.47875000  0.02462150  1.85971000  1
  Mo  Mo7  1  3.53762000  1.75849000  1.79194000  1
  Mo  Mo8  1  0.05495050  3.57670000  3.62834000  1
  Mo  Mo9  1  1.83707000  5.48209000  -0.01123850  1
  Mo  Mo10  1  1.75628000  3.60483000  1.71265000  1
  Mo  Mo11  1  7.36897000  5.50804000  1.87193000  1
  Mo  Mo12  1  3.55482000  3.71148000  3.64305000  1
  Mo  Mo13  1  5.47754000  5.45187000  3.69224000  1
  Mo  Mo14  1  5.51952000  3.67164000  1.79772000  1
  Mo  Mo15  1  3.47257000  5.51223000  1.88292000  1
