# generated using pymatgen
data_Mo
_symmetry_space_group_name_H-M   'P 1'
_cell_length_a   7.28313708
_cell_length_b   7.28313708
_cell_length_c   3.64156842
_cell_angle_alpha   90.00000000
_cell_angle_beta   90.00000000
_cell_angle_gamma   90.00000000
_symmetry_Int_Tables_number   1
_chemical_formula_structural   Mo
_chemical_formula_sum   Mo16
_cell_volume   193.16366741
_cell_formula_units_Z   16
loop_
 _symmetry_equiv_pos_site_id
 _symmetry_equiv_pos_as_xyz
  1  'x, y, z'
loop_
 _atom_site_type_symbol
 _atom_site_label
 _atom_site_symmetry_multiplicity
 _atom_site_fract_x
 _atom_site_fract_y
 _atom_site_fract_z
 _atom_site_occupancy
  Mo  Mo0  1  0.09339630  7.22171000  -0.00715760  1
  Mo  Mo1  1  1.70900000  1.86704000  0.03717720  1
  Mo  Mo2  1  1.94888000  -0.03501500  1.77149000  1
  Mo  Mo3  1  7.23440000  1.74209000  1.87889000  1
  Mo  Mo4  1  3.66083000  -0.00360547  3.59188000  1
  Mo  Mo5  1  5.46425000  1.87931000  0.06968970  1
  Mo  Mo6  1  5.49810000  0.05151210  1.74540000  1
  Mo  Mo7  1  3.61864000  1.78576000  1.73911000  1
  Mo  Mo8  1  0.03982180  3.64390000  3.64957000  1
  Mo  Mo9  1  1.76598000  5.41325000  0.02895380  1
  Mo  Mo10  1  1.74203000  3.56457000  1.83774000  1
  Mo  Mo11  1  7.30245000  5.49372000  1.93391000  1
  Mo  Mo12  1  3.62508000  3.59820000  3.63707000  1
  Mo  Mo13  1  5.43853000  5.50946000  3.57722000  1
  Mo  Mo14  1  5.48083000  3.70467000  1.79820000  1
  Mo  Mo15  1  3.60178000  5.50430000  1.82287000  1
