# generated using pymatgen
data_Mo
_symmetry_space_group_name_H-M   'P 1'
_cell_length_a   7.28313708
_cell_length_b   7.28313708
_cell_length_c   3.64156842
_cell_angle_alpha   90.00000000
_cell_angle_beta   90.00000000
_cell_angle_gamma   90.00000000
_symmetry_Int_Tables_number   1
_chemical_formula_structural   Mo
_chemical_formula_sum   Mo16
_cell_volume   193.16366741
_cell_formula_units_Z   16
loop_
 _symmetry_equiv_pos_site_id
 _symmetry_equiv_pos_as_xyz
  1  'x, y, z'
loop_
 _atom_site_type_symbol
 _atom_site_label
 _atom_site_symmetry_multiplicity
 _atom_site_fract_x
 _atom_site_fract_y
 _atom_site_fract_z
 _atom_site_occupancy
  Mo  Mo0  1  0.06078000  7.36110000  0.01953270  1
  Mo  Mo1  1  1.77670000  1.78150000  -0.03154550  1
  Mo  Mo2  1  1.86334000  0.02222370  1.77386000  1
  Mo  Mo3  1  7.30253000  1.79150000  1.85329000  1
  Mo  Mo4  1  3.66048000  -0.07164590  3.71617000  1
  Mo  Mo5  1  5.41847000  1.76992000  0.02430750  1
  Mo  Mo6  1  5.56476000  0.02071320  1.84720000  1
  Mo  Mo7  1  3.59947000  1.81273000  1.79630000  1
  Mo  Mo8  1  0.01560670  3.64479000  3.66750000  1
  Mo  Mo9  1  1.81797000  5.50456000  -0.05328670  1
  Mo  Mo10  1  1.66023000  3.65227000  1.75348000  1
  Mo  Mo11  1  7.26944000  5.38418000  1.73500000  1
  Mo  Mo12  1  3.64990000  3.65284000  3.69314000  1
  Mo  Mo13  1  5.53206000  5.46413000  3.71505000  1
  Mo  Mo14  1  5.42206000  3.64598000  1.80670000  1
  Mo  Mo15  1  3.61020000  5.50408000  1.79530000  1
