# generated using pymatgen
data_Mo
_symmetry_space_group_name_H-M   'P 1'
_cell_length_a   7.27806742
_cell_length_b   7.27806742
_cell_length_c   3.63903379
_cell_angle_alpha   90.00000000
_cell_angle_beta   90.00000000
_cell_angle_gamma   90.00000000
_symmetry_Int_Tables_number   1
_chemical_formula_structural   Mo
_chemical_formula_sum   Mo16
_cell_volume   192.76058556
_cell_formula_units_Z   16
loop_
 _symmetry_equiv_pos_site_id
 _symmetry_equiv_pos_as_xyz
  1  'x, y, z'
loop_
 _atom_site_type_symbol
 _atom_site_label
 _atom_site_symmetry_multiplicity
 _atom_site_fract_x
 _atom_site_fract_y
 _atom_site_fract_z
 _atom_site_occupancy
  Mo  Mo0  1  0.01164500  7.26508000  3.64712000  1
  Mo  Mo1  1  1.81540000  1.84058000  0.00369836  1
  Mo  Mo2  1  1.85766000  7.29055000  1.83278000  1
  Mo  Mo3  1  7.28112000  1.82111000  1.80768000  1
  Mo  Mo4  1  3.64357000  7.26884000  -0.02842680  1
  Mo  Mo5  1  5.44659000  1.80450000  -0.02788300  1
  Mo  Mo6  1  5.46600000  0.01060920  1.80080000  1
  Mo  Mo7  1  3.65248000  1.81832000  1.78709000  1
  Mo  Mo8  1  7.27482000  3.63346000  3.66108000  1
  Mo  Mo9  1  1.80692000  5.44572000  3.65857000  1
  Mo  Mo10  1  1.81831000  3.62831000  1.81571000  1
  Mo  Mo11  1  -0.02854910  5.45946000  1.83592000  1
  Mo  Mo12  1  3.62411000  3.64915000  3.67124000  1
  Mo  Mo13  1  5.45619000  5.45311000  3.62078000  1
  Mo  Mo14  1  5.44786000  3.65912000  1.83627000  1
  Mo  Mo15  1  3.64987000  5.45416000  1.82860000  1
