# generated using pymatgen
data_Mo
_symmetry_space_group_name_H-M   'P 1'
_cell_length_a   7.28313708
_cell_length_b   7.28313708
_cell_length_c   3.64156842
_cell_angle_alpha   90.00000000
_cell_angle_beta   90.00000000
_cell_angle_gamma   90.00000000
_symmetry_Int_Tables_number   1
_chemical_formula_structural   Mo
_chemical_formula_sum   Mo16
_cell_volume   193.16366741
_cell_formula_units_Z   16
loop_
 _symmetry_equiv_pos_site_id
 _symmetry_equiv_pos_as_xyz
  1  'x, y, z'
loop_
 _atom_site_type_symbol
 _atom_site_label
 _atom_site_symmetry_multiplicity
 _atom_site_fract_x
 _atom_site_fract_y
 _atom_site_fract_z
 _atom_site_occupancy
  Mo  Mo0  1  -0.03498560  7.23254000  0.04027250  1
  Mo  Mo1  1  1.92539000  1.78430000  0.06097740  1
  Mo  Mo2  1  1.72200000  0.04446620  1.85223000  1
  Mo  Mo3  1  7.29724000  1.96726000  1.76613000  1
  Mo  Mo4  1  3.63902000  0.02285230  3.68358000  1
  Mo  Mo5  1  5.49859000  1.76089000  -0.04048990  1
  Mo  Mo6  1  5.33684000  -0.04962880  1.84049000  1
  Mo  Mo7  1  3.68637000  1.84504000  1.85500000  1
  Mo  Mo8  1  -0.05328780  3.61986000  3.63763000  1
  Mo  Mo9  1  1.89338000  5.45762000  0.02989820  1
  Mo  Mo10  1  1.81752000  3.70804000  1.82242000  1
  Mo  Mo11  1  7.28009000  5.45278000  1.75502000  1
  Mo  Mo12  1  3.66392000  3.60384000  3.59809000  1
  Mo  Mo13  1  5.41849000  5.53801000  3.70820000  1
  Mo  Mo14  1  5.45517000  3.57667000  1.75099000  1
  Mo  Mo15  1  3.67825000  5.37633000  1.75157000  1
