# generated using pymatgen
data_Mo
_symmetry_space_group_name_H-M   'P 1'
_cell_length_a   7.28313708
_cell_length_b   7.28313708
_cell_length_c   3.64156842
_cell_angle_alpha   90.00000000
_cell_angle_beta   90.00000000
_cell_angle_gamma   90.00000000
_symmetry_Int_Tables_number   1
_chemical_formula_structural   Mo
_chemical_formula_sum   Mo16
_cell_volume   193.16366741
_cell_formula_units_Z   16
loop_
 _symmetry_equiv_pos_site_id
 _symmetry_equiv_pos_as_xyz
  1  'x, y, z'
loop_
 _atom_site_type_symbol
 _atom_site_label
 _atom_site_symmetry_multiplicity
 _atom_site_fract_x
 _atom_site_fract_y
 _atom_site_fract_z
 _atom_site_occupancy
  Mo  Mo0  1  -0.00688302  7.32343000  0.04035120  1
  Mo  Mo1  1  1.87950000  1.74783000  -0.02303830  1
  Mo  Mo2  1  1.72315000  0.05094730  1.82799000  1
  Mo  Mo3  1  7.29553000  1.84788000  1.93978000  1
  Mo  Mo4  1  3.69032000  -0.05273680  3.63723000  1
  Mo  Mo5  1  5.39281000  1.77276000  0.01842290  1
  Mo  Mo6  1  5.55841000  0.00245466  1.88630000  1
  Mo  Mo7  1  3.59828000  1.75627000  1.87335000  1
  Mo  Mo8  1  0.03568370  3.60868000  3.66590000  1
  Mo  Mo9  1  1.90232000  5.54964000  -0.09753760  1
  Mo  Mo10  1  1.78870000  3.62736000  1.81966000  1
  Mo  Mo11  1  7.24100000  5.50627000  1.71720000  1
  Mo  Mo12  1  3.62903000  3.63545000  3.60125000  1
  Mo  Mo13  1  5.55963000  5.47935000  3.59582000  1
  Mo  Mo14  1  5.36225000  3.60571000  1.81290000  1
  Mo  Mo15  1  3.57428000  5.47956000  1.79643000  1
