# generated using pymatgen
data_Mo
_symmetry_space_group_name_H-M   'P 1'
_cell_length_a   7.28313708
_cell_length_b   7.28313708
_cell_length_c   3.64156842
_cell_angle_alpha   90.00000000
_cell_angle_beta   90.00000000
_cell_angle_gamma   90.00000000
_symmetry_Int_Tables_number   1
_chemical_formula_structural   Mo
_chemical_formula_sum   Mo16
_cell_volume   193.16366741
_cell_formula_units_Z   16
loop_
 _symmetry_equiv_pos_site_id
 _symmetry_equiv_pos_as_xyz
  1  'x, y, z'
loop_
 _atom_site_type_symbol
 _atom_site_label
 _atom_site_symmetry_multiplicity
 _atom_site_fract_x
 _atom_site_fract_y
 _atom_site_fract_z
 _atom_site_occupancy
  Mo  Mo0  1  0.05164030  7.28058000  0.03477230  1
  Mo  Mo1  1  1.78550000  1.76893000  0.11115100  1
  Mo  Mo2  1  1.77567000  0.01141650  1.83039000  1
  Mo  Mo3  1  7.32873000  1.71725000  1.87532000  1
  Mo  Mo4  1  3.60129000  0.03902890  3.57718000  1
  Mo  Mo5  1  5.52961000  1.84622000  0.03181760  1
  Mo  Mo6  1  5.42320000  0.08264930  1.74270000  1
  Mo  Mo7  1  3.57021000  1.72542000  1.79944000  1
  Mo  Mo8  1  0.06972360  3.58176000  3.73509000  1
  Mo  Mo9  1  1.85170000  5.41528000  -0.00252212  1
  Mo  Mo10  1  1.70844000  3.66155000  1.83111000  1
  Mo  Mo11  1  7.22807000  5.53578000  1.76366000  1
  Mo  Mo12  1  3.69093000  3.67938000  3.66874000  1
  Mo  Mo13  1  5.53393000  5.42906000  3.50889000  1
  Mo  Mo14  1  5.49540000  3.70132000  1.77090000  1
  Mo  Mo15  1  3.57995000  5.46525000  1.83337000  1
