# generated using pymatgen
data_Mo
_symmetry_space_group_name_H-M   'P 1'
_cell_length_a   7.28313708
_cell_length_b   7.28313708
_cell_length_c   3.64156842
_cell_angle_alpha   90.00000000
_cell_angle_beta   90.00000000
_cell_angle_gamma   90.00000000
_symmetry_Int_Tables_number   1
_chemical_formula_structural   Mo
_chemical_formula_sum   Mo16
_cell_volume   193.16366741
_cell_formula_units_Z   16
loop_
 _symmetry_equiv_pos_site_id
 _symmetry_equiv_pos_as_xyz
  1  'x, y, z'
loop_
 _atom_site_type_symbol
 _atom_site_label
 _atom_site_symmetry_multiplicity
 _atom_site_fract_x
 _atom_site_fract_y
 _atom_site_fract_z
 _atom_site_occupancy
  Mo  Mo0  1  -0.09631890  7.35035000  -0.02715450  1
  Mo  Mo1  1  1.90358000  1.90197000  0.00255654  1
  Mo  Mo2  1  1.84430000  -0.01600130  1.76163000  1
  Mo  Mo3  1  7.30550000  1.76970000  1.73687000  1
  Mo  Mo4  1  3.51626000  -0.02574890  3.69023000  1
  Mo  Mo5  1  5.51960000  1.81746000  0.06117400  1
  Mo  Mo6  1  5.35652000  -0.02465250  1.83163000  1
  Mo  Mo7  1  3.66665000  1.78116000  1.86728000  1
  Mo  Mo8  1  -0.02184470  3.66642000  3.58768000  1
  Mo  Mo9  1  1.74983000  5.41648000  -0.02835220  1
  Mo  Mo10  1  1.85647000  3.71145000  1.89871000  1
  Mo  Mo11  1  7.30775000  5.48416000  1.84953000  1
  Mo  Mo12  1  3.70515000  3.56535000  3.65496000  1
  Mo  Mo13  1  5.43714000  5.46193000  3.57234000  1
  Mo  Mo14  1  5.45827000  3.59849000  1.87823000  1
  Mo  Mo15  1  3.71515000  5.48237000  1.77470000  1
