# generated using pymatgen
data_Mo
_symmetry_space_group_name_H-M   'P 1'
_cell_length_a   7.28313708
_cell_length_b   7.28313708
_cell_length_c   3.64156842
_cell_angle_alpha   90.00000000
_cell_angle_beta   90.00000000
_cell_angle_gamma   90.00000000
_symmetry_Int_Tables_number   1
_chemical_formula_structural   Mo
_chemical_formula_sum   Mo16
_cell_volume   193.16366741
_cell_formula_units_Z   16
loop_
 _symmetry_equiv_pos_site_id
 _symmetry_equiv_pos_as_xyz
  1  'x, y, z'
loop_
 _atom_site_type_symbol
 _atom_site_label
 _atom_site_symmetry_multiplicity
 _atom_site_fract_x
 _atom_site_fract_y
 _atom_site_fract_z
 _atom_site_occupancy
  Mo  Mo0  1  -0.03173070  7.34385000  -0.01305250  1
  Mo  Mo1  1  1.76729000  1.77507000  0.06621440  1
  Mo  Mo2  1  1.78373000  -0.03299630  1.86161000  1
  Mo  Mo3  1  7.36257000  1.78010000  1.88620000  1
  Mo  Mo4  1  3.56139000  -0.03460690  3.68150000  1
  Mo  Mo5  1  5.48935000  1.75695000  -0.05011450  1
  Mo  Mo6  1  5.51016000  -0.02963410  1.78827000  1
  Mo  Mo7  1  3.62096000  1.92799000  1.81411000  1
  Mo  Mo8  1  -0.00721430  3.68684000  3.65161000  1
  Mo  Mo9  1  1.73403000  5.54660000  -0.00258264  1
  Mo  Mo10  1  1.83630000  3.60978000  1.88624000  1
  Mo  Mo11  1  7.31406000  5.49672000  1.77847000  1
  Mo  Mo12  1  3.59608000  3.60224000  3.59089000  1
  Mo  Mo13  1  5.42348000  5.53332000  3.65671000  1
  Mo  Mo14  1  5.59454000  3.55362000  1.79103000  1
  Mo  Mo15  1  3.66902000  5.42503000  1.72491000  1
