# generated using pymatgen
data_Mo
_symmetry_space_group_name_H-M   'P 1'
_cell_length_a   7.28313708
_cell_length_b   7.28313708
_cell_length_c   3.64156842
_cell_angle_alpha   90.00000000
_cell_angle_beta   90.00000000
_cell_angle_gamma   90.00000000
_symmetry_Int_Tables_number   1
_chemical_formula_structural   Mo
_chemical_formula_sum   Mo16
_cell_volume   193.16366741
_cell_formula_units_Z   16
loop_
 _symmetry_equiv_pos_site_id
 _symmetry_equiv_pos_as_xyz
  1  'x, y, z'
loop_
 _atom_site_type_symbol
 _atom_site_label
 _atom_site_symmetry_multiplicity
 _atom_site_fract_x
 _atom_site_fract_y
 _atom_site_fract_z
 _atom_site_occupancy
  Mo  Mo0  1  0.05006670  7.23898000  -0.02977720  1
  Mo  Mo1  1  1.84092000  1.89490000  -0.03797910  1
  Mo  Mo2  1  1.78379000  -0.01369300  1.81266000  1
  Mo  Mo3  1  7.30260000  1.85666000  1.79445000  1
  Mo  Mo4  1  3.66690000  0.02984110  3.64169000  1
  Mo  Mo5  1  5.46801000  1.84741000  0.03297240  1
  Mo  Mo6  1  5.50322000  -0.03615620  1.85591000  1
  Mo  Mo7  1  3.57722000  1.81289000  1.79640000  1
  Mo  Mo8  1  -0.05948300  3.53789000  3.59281000  1
  Mo  Mo9  1  1.72299000  5.44940000  -0.03767960  1
  Mo  Mo10  1  1.79850000  3.65497000  1.75566000  1
  Mo  Mo11  1  7.33796000  5.54181000  1.84542000  1
  Mo  Mo12  1  3.50796000  3.66956000  3.59062000  1
  Mo  Mo13  1  5.56342000  5.42332000  3.67899000  1
  Mo  Mo14  1  5.48677000  3.57330000  1.88986000  1
  Mo  Mo15  1  3.67315000  5.45979000  1.92998000  1
