# generated using pymatgen
data_Mo
_symmetry_space_group_name_H-M   'P 1'
_cell_length_a   7.28313708
_cell_length_b   7.28313708
_cell_length_c   3.64156842
_cell_angle_alpha   90.00000000
_cell_angle_beta   90.00000000
_cell_angle_gamma   90.00000000
_symmetry_Int_Tables_number   1
_chemical_formula_structural   Mo
_chemical_formula_sum   Mo16
_cell_volume   193.16366741
_cell_formula_units_Z   16
loop_
 _symmetry_equiv_pos_site_id
 _symmetry_equiv_pos_as_xyz
  1  'x, y, z'
loop_
 _atom_site_type_symbol
 _atom_site_label
 _atom_site_symmetry_multiplicity
 _atom_site_fract_x
 _atom_site_fract_y
 _atom_site_fract_z
 _atom_site_occupancy
  Mo  Mo0  1  0.04641540  7.28702000  0.03749450  1
  Mo  Mo1  1  1.78016000  1.89896000  0.00186928  1
  Mo  Mo2  1  1.77424000  -0.06678790  1.90044000  1
  Mo  Mo3  1  7.37946000  1.88403000  1.81108000  1
  Mo  Mo4  1  3.60122000  0.05925680  3.66584000  1
  Mo  Mo5  1  5.42826000  1.81871000  -0.09508850  1
  Mo  Mo6  1  5.52012000  -0.02942340  1.78599000  1
  Mo  Mo7  1  3.65450000  1.81003000  1.79616000  1
  Mo  Mo8  1  -0.17695000  3.65350000  3.61511000  1
  Mo  Mo9  1  1.88389000  5.37197000  0.05229810  1
  Mo  Mo10  1  1.87772000  3.59594000  1.90057000  1
  Mo  Mo11  1  7.36441000  5.47521000  1.77121000  1
  Mo  Mo12  1  3.66714000  3.59286000  3.59775000  1
  Mo  Mo13  1  5.41991000  5.56243000  3.64112000  1
  Mo  Mo14  1  5.37822000  3.66147000  1.75941000  1
  Mo  Mo15  1  3.62527000  5.36568000  1.87075000  1
