# generated using pymatgen
data_Mo
_symmetry_space_group_name_H-M   'P 1'
_cell_length_a   7.28313708
_cell_length_b   7.28313708
_cell_length_c   3.64156842
_cell_angle_alpha   90.00000000
_cell_angle_beta   90.00000000
_cell_angle_gamma   90.00000000
_symmetry_Int_Tables_number   1
_chemical_formula_structural   Mo
_chemical_formula_sum   Mo16
_cell_volume   193.16366741
_cell_formula_units_Z   16
loop_
 _symmetry_equiv_pos_site_id
 _symmetry_equiv_pos_as_xyz
  1  'x, y, z'
loop_
 _atom_site_type_symbol
 _atom_site_label
 _atom_site_symmetry_multiplicity
 _atom_site_fract_x
 _atom_site_fract_y
 _atom_site_fract_z
 _atom_site_occupancy
  Mo  Mo0  1  0.00419112  7.34257000  0.06037360  1
  Mo  Mo1  1  1.80219000  1.74228000  -0.00546253  1
  Mo  Mo2  1  1.87537000  -0.04038830  1.83705000  1
  Mo  Mo3  1  7.23914000  1.74098000  1.71134000  1
  Mo  Mo4  1  3.60620000  0.02357850  3.67146000  1
  Mo  Mo5  1  5.46711000  1.89403000  0.00975485  1
  Mo  Mo6  1  5.48732000  -0.02224730  1.83959000  1
  Mo  Mo7  1  3.71307000  1.87612000  1.80133000  1
  Mo  Mo8  1  0.03475930  3.68689000  3.60628000  1
  Mo  Mo9  1  1.83446000  5.48205000  0.02053720  1
  Mo  Mo10  1  1.74407000  3.60982000  1.89728000  1
  Mo  Mo11  1  7.34657000  5.38807000  1.85339000  1
  Mo  Mo12  1  3.47693000  3.60706000  3.58477000  1
  Mo  Mo13  1  5.49223000  5.44066000  3.61603000  1
  Mo  Mo14  1  5.38530000  3.69184000  1.80166000  1
  Mo  Mo15  1  3.71509000  5.47756000  1.80662000  1
