# generated using pymatgen
data_Mo
_symmetry_space_group_name_H-M   'P 1'
_cell_length_a   7.28313708
_cell_length_b   7.28313708
_cell_length_c   3.64156842
_cell_angle_alpha   90.00000000
_cell_angle_beta   90.00000000
_cell_angle_gamma   90.00000000
_symmetry_Int_Tables_number   1
_chemical_formula_structural   Mo
_chemical_formula_sum   Mo16
_cell_volume   193.16366741
_cell_formula_units_Z   16
loop_
 _symmetry_equiv_pos_site_id
 _symmetry_equiv_pos_as_xyz
  1  'x, y, z'
loop_
 _atom_site_type_symbol
 _atom_site_label
 _atom_site_symmetry_multiplicity
 _atom_site_fract_x
 _atom_site_fract_y
 _atom_site_fract_z
 _atom_site_occupancy
  Mo  Mo0  1  -0.02777000  7.34420000  -0.00134824  1
  Mo  Mo1  1  1.83961000  1.83600000  -0.11829500  1
  Mo  Mo2  1  1.78759000  0.02512100  1.81937000  1
  Mo  Mo3  1  7.32413000  1.78230000  1.75074000  1
  Mo  Mo4  1  3.62253000  -0.02164140  3.62640000  1
  Mo  Mo5  1  5.43052000  1.77471000  -0.05449460  1
  Mo  Mo6  1  5.55365000  0.02768740  1.84365000  1
  Mo  Mo7  1  3.62238000  1.96373000  1.84094000  1
  Mo  Mo8  1  0.09848240  3.65564000  3.64128000  1
  Mo  Mo9  1  1.73045000  5.46161000  0.04428040  1
  Mo  Mo10  1  1.76438000  3.67457000  1.81908000  1
  Mo  Mo11  1  7.25387000  5.33335000  1.87536000  1
  Mo  Mo12  1  3.64754000  3.62491000  3.68699000  1
  Mo  Mo13  1  5.52498000  5.44292000  3.70331000  1
  Mo  Mo14  1  5.47374000  3.61781000  1.85231000  1
  Mo  Mo15  1  3.57794000  5.39796000  1.78243000  1
