# generated using pymatgen
data_Mo
_symmetry_space_group_name_H-M   'P 1'
_cell_length_a   7.27806742
_cell_length_b   7.27806742
_cell_length_c   3.63903379
_cell_angle_alpha   90.00000000
_cell_angle_beta   90.00000000
_cell_angle_gamma   90.00000000
_symmetry_Int_Tables_number   1
_chemical_formula_structural   Mo
_chemical_formula_sum   Mo16
_cell_volume   192.76058556
_cell_formula_units_Z   16
loop_
 _symmetry_equiv_pos_site_id
 _symmetry_equiv_pos_as_xyz
  1  'x, y, z'
loop_
 _atom_site_type_symbol
 _atom_site_label
 _atom_site_symmetry_multiplicity
 _atom_site_fract_x
 _atom_site_fract_y
 _atom_site_fract_z
 _atom_site_occupancy
  Mo  Mo0  1  -0.01565030  7.26450000  3.63707000  1
  Mo  Mo1  1  1.83242000  1.80453000  -0.01539100  1
  Mo  Mo2  1  1.80090000  7.30560000  1.81954000  1
  Mo  Mo3  1  7.29221000  1.81583000  1.82753000  1
  Mo  Mo4  1  3.66090000  7.26822000  -0.00542582  1
  Mo  Mo5  1  5.46242000  1.83413000  -0.00365506  1
  Mo  Mo6  1  5.45409000  -0.00952426  1.77263000  1
  Mo  Mo7  1  3.62395000  1.81817000  1.81076000  1
  Mo  Mo8  1  7.28361000  3.66753000  3.64539000  1
  Mo  Mo9  1  1.82799000  5.43507000  3.64523000  1
  Mo  Mo10  1  1.80889000  3.62174000  1.85590000  1
  Mo  Mo11  1  -0.00360856  5.45411000  1.82565000  1
  Mo  Mo12  1  3.62407000  3.65048000  3.62820000  1
  Mo  Mo13  1  5.46111000  5.46045000  3.66651000  1
  Mo  Mo14  1  5.46300000  3.63239000  1.82851000  1
  Mo  Mo15  1  3.64769000  5.47884000  1.81259000  1
