# generated using pymatgen
data_Mo
_symmetry_space_group_name_H-M   'P 1'
_cell_length_a   7.28313708
_cell_length_b   7.28313708
_cell_length_c   3.64156842
_cell_angle_alpha   90.00000000
_cell_angle_beta   90.00000000
_cell_angle_gamma   90.00000000
_symmetry_Int_Tables_number   1
_chemical_formula_structural   Mo
_chemical_formula_sum   Mo16
_cell_volume   193.16366741
_cell_formula_units_Z   16
loop_
 _symmetry_equiv_pos_site_id
 _symmetry_equiv_pos_as_xyz
  1  'x, y, z'
loop_
 _atom_site_type_symbol
 _atom_site_label
 _atom_site_symmetry_multiplicity
 _atom_site_fract_x
 _atom_site_fract_y
 _atom_site_fract_z
 _atom_site_occupancy
  Mo  Mo0  1  -0.04073720  7.34008000  0.02361920  1
  Mo  Mo1  1  1.85981000  1.76641000  0.03962850  1
  Mo  Mo2  1  1.94516000  -0.04828780  1.86545000  1
  Mo  Mo3  1  7.23496000  1.71008000  1.85824000  1
  Mo  Mo4  1  3.66652000  -0.10587600  3.60283000  1
  Mo  Mo5  1  5.36988000  1.78589000  0.01948100  1
  Mo  Mo6  1  5.45955000  0.00398690  1.83960000  1
  Mo  Mo7  1  3.59910000  1.90747000  1.86675000  1
  Mo  Mo8  1  0.00450798  3.69695000  3.61901000  1
  Mo  Mo9  1  1.79922000  5.52054000  -0.00307216  1
  Mo  Mo10  1  1.80126000  3.63383000  1.84414000  1
  Mo  Mo11  1  7.29667000  5.53360000  1.79993000  1
  Mo  Mo12  1  3.62087000  3.56792000  3.66642000  1
  Mo  Mo13  1  5.48626000  5.57450000  3.59461000  1
  Mo  Mo14  1  5.42196000  3.62522000  1.80831000  1
  Mo  Mo15  1  3.69902000  5.42856000  1.66705000  1
