# generated using pymatgen
data_Mo
_symmetry_space_group_name_H-M   'P 1'
_cell_length_a   7.28313708
_cell_length_b   7.28313708
_cell_length_c   3.64156842
_cell_angle_alpha   90.00000000
_cell_angle_beta   90.00000000
_cell_angle_gamma   90.00000000
_symmetry_Int_Tables_number   1
_chemical_formula_structural   Mo
_chemical_formula_sum   Mo16
_cell_volume   193.16366741
_cell_formula_units_Z   16
loop_
 _symmetry_equiv_pos_site_id
 _symmetry_equiv_pos_as_xyz
  1  'x, y, z'
loop_
 _atom_site_type_symbol
 _atom_site_label
 _atom_site_symmetry_multiplicity
 _atom_site_fract_x
 _atom_site_fract_y
 _atom_site_fract_z
 _atom_site_occupancy
  Mo  Mo0  1  0.01717800  7.31598000  -0.01211080  1
  Mo  Mo1  1  1.81747000  1.79247000  0.04647950  1
  Mo  Mo2  1  1.79268000  -0.00633010  1.73023000  1
  Mo  Mo3  1  7.33043000  1.88198000  1.85736000  1
  Mo  Mo4  1  3.61970000  0.01259370  3.69664000  1
  Mo  Mo5  1  5.44955000  1.75184000  0.08971110  1
  Mo  Mo6  1  5.48247000  0.00857456  1.78995000  1
  Mo  Mo7  1  3.61347000  1.82888000  1.76500000  1
  Mo  Mo8  1  0.01222990  3.56493000  3.63869000  1
  Mo  Mo9  1  1.79485000  5.45564000  0.03101640  1
  Mo  Mo10  1  1.68446000  3.68925000  1.77493000  1
  Mo  Mo11  1  7.33732000  5.44780000  1.88453000  1
  Mo  Mo12  1  3.53870000  3.63572000  3.65993000  1
  Mo  Mo13  1  5.51668000  5.44399000  3.58059000  1
  Mo  Mo14  1  5.52191000  3.69534000  1.79188000  1
  Mo  Mo15  1  3.69490000  5.42222000  1.78716000  1
