# generated using pymatgen
data_Mo
_symmetry_space_group_name_H-M   'P 1'
_cell_length_a   7.28313708
_cell_length_b   7.28313708
_cell_length_c   3.64156842
_cell_angle_alpha   90.00000000
_cell_angle_beta   90.00000000
_cell_angle_gamma   90.00000000
_symmetry_Int_Tables_number   1
_chemical_formula_structural   Mo
_chemical_formula_sum   Mo16
_cell_volume   193.16366741
_cell_formula_units_Z   16
loop_
 _symmetry_equiv_pos_site_id
 _symmetry_equiv_pos_as_xyz
  1  'x, y, z'
loop_
 _atom_site_type_symbol
 _atom_site_label
 _atom_site_symmetry_multiplicity
 _atom_site_fract_x
 _atom_site_fract_y
 _atom_site_fract_z
 _atom_site_occupancy
  Mo  Mo0  1  -0.01521820  7.31801000  0.09304130  1
  Mo  Mo1  1  1.82523000  1.85500000  0.03397340  1
  Mo  Mo2  1  1.85994000  -0.02556890  1.84024000  1
  Mo  Mo3  1  7.26790000  1.86953000  1.83067000  1
  Mo  Mo4  1  3.71986000  -0.10930500  3.60038000  1
  Mo  Mo5  1  5.50457000  1.95056000  0.04415090  1
  Mo  Mo6  1  5.40225000  -0.01379600  1.80627000  1
  Mo  Mo7  1  3.59348000  1.81007000  1.81121000  1
  Mo  Mo8  1  0.05029710  3.69850000  3.72687000  1
  Mo  Mo9  1  1.83219000  5.38726000  -0.03688850  1
  Mo  Mo10  1  1.67314000  3.63573000  1.79707000  1
  Mo  Mo11  1  7.26071000  5.46854000  1.73312000  1
  Mo  Mo12  1  3.67767000  3.57352000  3.60973000  1
  Mo  Mo13  1  5.53560000  5.41772000  3.63955000  1
  Mo  Mo14  1  5.41540000  3.64711000  1.82584000  1
  Mo  Mo15  1  3.62098000  5.45800000  1.75677000  1
