# generated using pymatgen
data_Mo
_symmetry_space_group_name_H-M   'P 1'
_cell_length_a   7.28313708
_cell_length_b   7.28313708
_cell_length_c   3.64156842
_cell_angle_alpha   90.00000000
_cell_angle_beta   90.00000000
_cell_angle_gamma   90.00000000
_symmetry_Int_Tables_number   1
_chemical_formula_structural   Mo
_chemical_formula_sum   Mo16
_cell_volume   193.16366741
_cell_formula_units_Z   16
loop_
 _symmetry_equiv_pos_site_id
 _symmetry_equiv_pos_as_xyz
  1  'x, y, z'
loop_
 _atom_site_type_symbol
 _atom_site_label
 _atom_site_symmetry_multiplicity
 _atom_site_fract_x
 _atom_site_fract_y
 _atom_site_fract_z
 _atom_site_occupancy
  Mo  Mo0  1  -0.02497890  7.32274000  0.06906700  1
  Mo  Mo1  1  1.79756000  1.71467000  -0.03220080  1
  Mo  Mo2  1  1.83678000  -0.02199230  1.76009000  1
  Mo  Mo3  1  7.33892000  1.74073000  1.74289000  1
  Mo  Mo4  1  3.58486000  0.01399370  3.64411000  1
  Mo  Mo5  1  5.50773000  1.83262000  0.06446040  1
  Mo  Mo6  1  5.45320000  -0.07143440  1.85056000  1
  Mo  Mo7  1  3.67749000  1.83141000  1.74129000  1
  Mo  Mo8  1  0.09736790  3.66281000  3.67174000  1
  Mo  Mo9  1  1.79443000  5.57601000  -0.06426720  1
  Mo  Mo10  1  1.77003000  3.63284000  1.78786000  1
  Mo  Mo11  1  7.39158000  5.38446000  1.77159000  1
  Mo  Mo12  1  3.46917000  3.63848000  3.60520000  1
  Mo  Mo13  1  5.46644000  5.46811000  3.74903000  1
  Mo  Mo14  1  5.44264000  3.68022000  1.92062000  1
  Mo  Mo15  1  3.62081000  5.53520000  1.82996000  1
