# generated using pymatgen
data_Mo
_symmetry_space_group_name_H-M   'P 1'
_cell_length_a   7.28313708
_cell_length_b   7.28313708
_cell_length_c   3.64156842
_cell_angle_alpha   90.00000000
_cell_angle_beta   90.00000000
_cell_angle_gamma   90.00000000
_symmetry_Int_Tables_number   1
_chemical_formula_structural   Mo
_chemical_formula_sum   Mo16
_cell_volume   193.16366741
_cell_formula_units_Z   16
loop_
 _symmetry_equiv_pos_site_id
 _symmetry_equiv_pos_as_xyz
  1  'x, y, z'
loop_
 _atom_site_type_symbol
 _atom_site_label
 _atom_site_symmetry_multiplicity
 _atom_site_fract_x
 _atom_site_fract_y
 _atom_site_fract_z
 _atom_site_occupancy
  Mo  Mo0  1  0.01640750  7.28958000  -0.05079990  1
  Mo  Mo1  1  1.77312000  1.74065000  0.01759660  1
  Mo  Mo2  1  1.87498000  -0.07055760  1.82633000  1
  Mo  Mo3  1  7.34108000  1.83359000  1.88382000  1
  Mo  Mo4  1  3.60127000  -0.00347691  3.54968000  1
  Mo  Mo5  1  5.47993000  1.80721000  0.02344320  1
  Mo  Mo6  1  5.43567000  0.01049450  1.74401000  1
  Mo  Mo7  1  3.61687000  1.88449000  1.88937000  1
  Mo  Mo8  1  -0.04121300  3.63995000  3.62552000  1
  Mo  Mo9  1  1.72342000  5.50464000  0.02246520  1
  Mo  Mo10  1  1.80502000  3.59051000  1.95109000  1
  Mo  Mo11  1  7.34088000  5.39640000  1.81490000  1
  Mo  Mo12  1  3.56835000  3.64289000  3.67212000  1
  Mo  Mo13  1  5.43838000  5.55533000  3.55550000  1
  Mo  Mo14  1  5.55462000  3.60380000  1.87556000  1
  Mo  Mo15  1  3.69522000  5.51536000  1.71139000  1
