# generated using pymatgen
data_Mo
_symmetry_space_group_name_H-M   'P 1'
_cell_length_a   7.28313708
_cell_length_b   7.28313708
_cell_length_c   3.64156842
_cell_angle_alpha   90.00000000
_cell_angle_beta   90.00000000
_cell_angle_gamma   90.00000000
_symmetry_Int_Tables_number   1
_chemical_formula_structural   Mo
_chemical_formula_sum   Mo16
_cell_volume   193.16366741
_cell_formula_units_Z   16
loop_
 _symmetry_equiv_pos_site_id
 _symmetry_equiv_pos_as_xyz
  1  'x, y, z'
loop_
 _atom_site_type_symbol
 _atom_site_label
 _atom_site_symmetry_multiplicity
 _atom_site_fract_x
 _atom_site_fract_y
 _atom_site_fract_z
 _atom_site_occupancy
  Mo  Mo0  1  -0.01024520  7.25770000  0.06302930  1
  Mo  Mo1  1  1.78895000  1.84608000  -0.01490330  1
  Mo  Mo2  1  1.79430000  -0.03038670  1.81142000  1
  Mo  Mo3  1  7.26232000  1.89210000  1.89770000  1
  Mo  Mo4  1  3.63478000  0.08066060  3.61698000  1
  Mo  Mo5  1  5.38272000  1.88269000  -0.01649410  1
  Mo  Mo6  1  5.50362000  -0.01902230  1.84629000  1
  Mo  Mo7  1  3.79831000  1.69824000  1.87135000  1
  Mo  Mo8  1  -0.05602510  3.66676000  3.63452000  1
  Mo  Mo9  1  1.88832000  5.43605000  -0.00446008  1
  Mo  Mo10  1  1.81129000  3.64270000  1.84529000  1
  Mo  Mo11  1  7.19992000  5.50787000  1.87815000  1
  Mo  Mo12  1  3.53286000  3.61730000  3.54455000  1
  Mo  Mo13  1  5.41559000  5.39145000  3.60705000  1
  Mo  Mo14  1  5.55704000  3.66156000  1.80426000  1
  Mo  Mo15  1  3.72025000  5.40911000  1.72727000  1
