# generated using pymatgen
data_Mo
_symmetry_space_group_name_H-M   'P 1'
_cell_length_a   7.28313708
_cell_length_b   7.28313708
_cell_length_c   3.64156842
_cell_angle_alpha   90.00000000
_cell_angle_beta   90.00000000
_cell_angle_gamma   90.00000000
_symmetry_Int_Tables_number   1
_chemical_formula_structural   Mo
_chemical_formula_sum   Mo16
_cell_volume   193.16366741
_cell_formula_units_Z   16
loop_
 _symmetry_equiv_pos_site_id
 _symmetry_equiv_pos_as_xyz
  1  'x, y, z'
loop_
 _atom_site_type_symbol
 _atom_site_label
 _atom_site_symmetry_multiplicity
 _atom_site_fract_x
 _atom_site_fract_y
 _atom_site_fract_z
 _atom_site_occupancy
  Mo  Mo0  1  -0.03479510  7.21104000  -0.00355451  1
  Mo  Mo1  1  1.89615000  1.78430000  0.11652200  1
  Mo  Mo2  1  1.83313000  0.01162840  1.83078000  1
  Mo  Mo3  1  7.30207000  1.87028000  1.82989000  1
  Mo  Mo4  1  3.69899000  0.02578980  3.61124000  1
  Mo  Mo5  1  5.54924000  1.82200000  -0.01854420  1
  Mo  Mo6  1  5.33950000  0.03100850  1.75838000  1
  Mo  Mo7  1  3.61931000  1.70174000  1.76698000  1
  Mo  Mo8  1  -0.02459100  3.60038000  3.69622000  1
  Mo  Mo9  1  1.85539000  5.43385000  0.01304300  1
  Mo  Mo10  1  1.82675000  3.72516000  1.84268000  1
  Mo  Mo11  1  7.22369000  5.49332000  1.82454000  1
  Mo  Mo12  1  3.62512000  3.64597000  3.60375000  1
  Mo  Mo13  1  5.49212000  5.47467000  3.62826000  1
  Mo  Mo14  1  5.38958000  3.66233000  1.79870000  1
  Mo  Mo15  1  3.63235000  5.44737000  1.81313000  1
