# generated using pymatgen
data_Mo
_symmetry_space_group_name_H-M   'P 1'
_cell_length_a   7.28313708
_cell_length_b   7.28313708
_cell_length_c   3.64156842
_cell_angle_alpha   90.00000000
_cell_angle_beta   90.00000000
_cell_angle_gamma   90.00000000
_symmetry_Int_Tables_number   1
_chemical_formula_structural   Mo
_chemical_formula_sum   Mo16
_cell_volume   193.16366741
_cell_formula_units_Z   16
loop_
 _symmetry_equiv_pos_site_id
 _symmetry_equiv_pos_as_xyz
  1  'x, y, z'
loop_
 _atom_site_type_symbol
 _atom_site_label
 _atom_site_symmetry_multiplicity
 _atom_site_fract_x
 _atom_site_fract_y
 _atom_site_fract_z
 _atom_site_occupancy
  Mo  Mo0  1  0.02259520  7.26038000  -0.00857554  1
  Mo  Mo1  1  1.87819000  1.84213000  -0.08128120  1
  Mo  Mo2  1  1.81816000  0.01341520  1.81263000  1
  Mo  Mo3  1  7.30019000  1.82345000  1.78086000  1
  Mo  Mo4  1  3.67611000  0.00902401  3.64304000  1
  Mo  Mo5  1  5.39550000  1.81191000  -0.01175410  1
  Mo  Mo6  1  5.40939000  -0.04033350  1.82332000  1
  Mo  Mo7  1  3.67027000  1.84790000  1.88679000  1
  Mo  Mo8  1  -0.04612760  3.52550000  3.64656000  1
  Mo  Mo9  1  1.88156000  5.50206000  -0.05467980  1
  Mo  Mo10  1  1.73367000  3.69434000  1.79165000  1
  Mo  Mo11  1  7.20985000  5.48533000  1.90906000  1
  Mo  Mo12  1  3.64594000  3.74989000  3.61434000  1
  Mo  Mo13  1  5.49896000  5.39015000  3.64719000  1
  Mo  Mo14  1  5.49617000  3.62690000  1.86119000  1
  Mo  Mo15  1  3.63357000  5.39880000  1.85166000  1
