# generated using pymatgen
data_Mo
_symmetry_space_group_name_H-M   'P 1'
_cell_length_a   7.28313708
_cell_length_b   7.28313708
_cell_length_c   3.64156842
_cell_angle_alpha   90.00000000
_cell_angle_beta   90.00000000
_cell_angle_gamma   90.00000000
_symmetry_Int_Tables_number   1
_chemical_formula_structural   Mo
_chemical_formula_sum   Mo16
_cell_volume   193.16366741
_cell_formula_units_Z   16
loop_
 _symmetry_equiv_pos_site_id
 _symmetry_equiv_pos_as_xyz
  1  'x, y, z'
loop_
 _atom_site_type_symbol
 _atom_site_label
 _atom_site_symmetry_multiplicity
 _atom_site_fract_x
 _atom_site_fract_y
 _atom_site_fract_z
 _atom_site_occupancy
  Mo  Mo0  1  -0.07628050  7.28409000  -0.10618900  1
  Mo  Mo1  1  1.92698000  1.83408000  -0.00665532  1
  Mo  Mo2  1  1.82774000  -0.03237140  1.77300000  1
  Mo  Mo3  1  7.30080000  1.89905000  1.84609000  1
  Mo  Mo4  1  3.63968000  0.01374460  3.70436000  1
  Mo  Mo5  1  5.46678000  1.79809000  0.02403790  1
  Mo  Mo6  1  5.35938000  -0.02749340  1.85290000  1
  Mo  Mo7  1  3.68884000  1.75673000  1.81390000  1
  Mo  Mo8  1  -0.02440080  3.54585000  3.56476000  1
  Mo  Mo9  1  1.76231000  5.46202000  -0.00271742  1
  Mo  Mo10  1  1.86901000  3.73683000  1.83581000  1
  Mo  Mo11  1  7.27040000  5.45285000  1.90145000  1
  Mo  Mo12  1  3.65976000  3.59779000  3.67049000  1
  Mo  Mo13  1  5.40668000  5.49580000  3.56031000  1
  Mo  Mo14  1  5.38441000  3.62969000  1.81664000  1
  Mo  Mo15  1  3.76191000  5.49410000  1.86383000  1
