# generated using pymatgen
data_Mo
_symmetry_space_group_name_H-M   'P 1'
_cell_length_a   7.27806742
_cell_length_b   7.27806742
_cell_length_c   3.63903379
_cell_angle_alpha   90.00000000
_cell_angle_beta   90.00000000
_cell_angle_gamma   90.00000000
_symmetry_Int_Tables_number   1
_chemical_formula_structural   Mo
_chemical_formula_sum   Mo16
_cell_volume   192.76058556
_cell_formula_units_Z   16
loop_
 _symmetry_equiv_pos_site_id
 _symmetry_equiv_pos_as_xyz
  1  'x, y, z'
loop_
 _atom_site_type_symbol
 _atom_site_label
 _atom_site_symmetry_multiplicity
 _atom_site_fract_x
 _atom_site_fract_y
 _atom_site_fract_z
 _atom_site_occupancy
  Mo  Mo0  1  0.00324799  7.26867000  3.63927000  1
  Mo  Mo1  1  1.80015000  1.82735000  0.01756760  1
  Mo  Mo2  1  1.84314000  7.26993000  1.83177000  1
  Mo  Mo3  1  7.28182000  1.82494000  1.81076000  1
  Mo  Mo4  1  3.64889000  7.29020000  -0.03691650  1
  Mo  Mo5  1  5.46516000  1.81408000  -0.02714690  1
  Mo  Mo6  1  5.47656000  -0.00179995  1.80765000  1
  Mo  Mo7  1  3.64528000  1.80906000  1.79055000  1
  Mo  Mo8  1  7.29704000  3.62748000  3.65905000  1
  Mo  Mo9  1  1.80431000  5.47341000  3.66209000  1
  Mo  Mo10  1  1.81870000  3.62898000  1.79881000  1
  Mo  Mo11  1  -0.02413870  5.45236000  1.84225000  1
  Mo  Mo12  1  3.60950000  3.63625000  3.67450000  1
  Mo  Mo13  1  5.45894000  5.45617000  3.61630000  1
  Mo  Mo14  1  5.44682000  3.67077000  1.83586000  1
  Mo  Mo15  1  3.64859000  5.45422000  1.82867000  1
