# generated using pymatgen
data_Mo
_symmetry_space_group_name_H-M   'P 1'
_cell_length_a   7.28313708
_cell_length_b   7.28313708
_cell_length_c   3.64156842
_cell_angle_alpha   90.00000000
_cell_angle_beta   90.00000000
_cell_angle_gamma   90.00000000
_symmetry_Int_Tables_number   1
_chemical_formula_structural   Mo
_chemical_formula_sum   Mo16
_cell_volume   193.16366741
_cell_formula_units_Z   16
loop_
 _symmetry_equiv_pos_site_id
 _symmetry_equiv_pos_as_xyz
  1  'x, y, z'
loop_
 _atom_site_type_symbol
 _atom_site_label
 _atom_site_symmetry_multiplicity
 _atom_site_fract_x
 _atom_site_fract_y
 _atom_site_fract_z
 _atom_site_occupancy
  Mo  Mo0  1  0.03834850  7.22997000  -0.08348120  1
  Mo  Mo1  1  1.79952000  1.77789000  -0.03174710  1
  Mo  Mo2  1  1.66591000  0.05247400  1.78638000  1
  Mo  Mo3  1  7.31517000  1.92831000  1.77900000  1
  Mo  Mo4  1  3.64943000  0.09920400  3.62852000  1
  Mo  Mo5  1  5.54589000  1.74596000  -0.02244300  1
  Mo  Mo6  1  5.45742000  0.03752000  1.86949000  1
  Mo  Mo7  1  3.60657000  1.71179000  1.88181000  1
  Mo  Mo8  1  0.00500388  3.63180000  3.61279000  1
  Mo  Mo9  1  1.83576000  5.39742000  -0.03522920  1
  Mo  Mo10  1  1.74674000  3.72989000  1.83006000  1
  Mo  Mo11  1  7.32711000  5.41434000  1.81587000  1
  Mo  Mo12  1  3.59248000  3.64739000  3.59958000  1
  Mo  Mo13  1  5.53727000  5.51039000  3.73726000  1
  Mo  Mo14  1  5.44680000  3.61245000  1.89354000  1
  Mo  Mo15  1  3.65458000  5.41408000  1.85060000  1
