# generated using pymatgen
data_Mo
_symmetry_space_group_name_H-M   'P 1'
_cell_length_a   7.28313708
_cell_length_b   7.28313708
_cell_length_c   3.64156842
_cell_angle_alpha   90.00000000
_cell_angle_beta   90.00000000
_cell_angle_gamma   90.00000000
_symmetry_Int_Tables_number   1
_chemical_formula_structural   Mo
_chemical_formula_sum   Mo16
_cell_volume   193.16366741
_cell_formula_units_Z   16
loop_
 _symmetry_equiv_pos_site_id
 _symmetry_equiv_pos_as_xyz
  1  'x, y, z'
loop_
 _atom_site_type_symbol
 _atom_site_label
 _atom_site_symmetry_multiplicity
 _atom_site_fract_x
 _atom_site_fract_y
 _atom_site_fract_z
 _atom_site_occupancy
  Mo  Mo0  1  -0.03270680  7.35727000  0.04563010  1
  Mo  Mo1  1  1.84335000  1.78927000  -0.02148010  1
  Mo  Mo2  1  1.83379000  0.00773280  1.77576000  1
  Mo  Mo3  1  7.29927000  1.93267000  1.70323000  1
  Mo  Mo4  1  3.63607000  -0.01879640  3.68230000  1
  Mo  Mo5  1  5.43013000  1.80625000  0.03278470  1
  Mo  Mo6  1  5.37547000  -0.02351480  1.82993000  1
  Mo  Mo7  1  3.65811000  1.78428000  1.80352000  1
  Mo  Mo8  1  -0.06907520  3.61560000  3.59406000  1
  Mo  Mo9  1  1.77515000  5.46907000  0.05930100  1
  Mo  Mo10  1  1.95517000  3.69242000  1.77674000  1
  Mo  Mo11  1  7.27161000  5.36536000  1.86330000  1
  Mo  Mo12  1  3.63472000  3.69438000  3.65154000  1
  Mo  Mo13  1  5.40618000  5.39294000  3.71809000  1
  Mo  Mo14  1  5.45182000  3.62858000  1.79422000  1
  Mo  Mo15  1  3.75494000  5.44735000  1.80307000  1
