# generated using pymatgen
data_Mo
_symmetry_space_group_name_H-M   'P 1'
_cell_length_a   7.28313708
_cell_length_b   7.28313708
_cell_length_c   3.64156842
_cell_angle_alpha   90.00000000
_cell_angle_beta   90.00000000
_cell_angle_gamma   90.00000000
_symmetry_Int_Tables_number   1
_chemical_formula_structural   Mo
_chemical_formula_sum   Mo16
_cell_volume   193.16366741
_cell_formula_units_Z   16
loop_
 _symmetry_equiv_pos_site_id
 _symmetry_equiv_pos_as_xyz
  1  'x, y, z'
loop_
 _atom_site_type_symbol
 _atom_site_label
 _atom_site_symmetry_multiplicity
 _atom_site_fract_x
 _atom_site_fract_y
 _atom_site_fract_z
 _atom_site_occupancy
  Mo  Mo0  1  0.02314610  7.34180000  0.00113961  1
  Mo  Mo1  1  1.83122000  1.83646000  0.00059205  1
  Mo  Mo2  1  1.83676000  -0.02427510  1.71616000  1
  Mo  Mo3  1  7.38809000  1.69615000  1.82419000  1
  Mo  Mo4  1  3.53400000  -0.02495350  3.69870000  1
  Mo  Mo5  1  5.53458000  1.79554000  0.05205120  1
  Mo  Mo6  1  5.47038000  -0.01348650  1.83311000  1
  Mo  Mo7  1  3.49238000  1.74047000  1.69366000  1
  Mo  Mo8  1  -0.06762060  3.60449000  3.60078000  1
  Mo  Mo9  1  1.76276000  5.41530000  -0.07024180  1
  Mo  Mo10  1  1.81796000  3.75177000  1.75479000  1
  Mo  Mo11  1  7.39435000  5.53224000  1.81766000  1
  Mo  Mo12  1  3.61689000  3.65010000  3.67984000  1
  Mo  Mo13  1  5.49986000  5.50105000  3.71669000  1
  Mo  Mo14  1  5.38079000  3.63230000  1.94846000  1
  Mo  Mo15  1  3.70845000  5.50592000  1.84441000  1
