# generated using pymatgen
data_Mo
_symmetry_space_group_name_H-M   'P 1'
_cell_length_a   7.28313708
_cell_length_b   7.28313708
_cell_length_c   3.64156842
_cell_angle_alpha   90.00000000
_cell_angle_beta   90.00000000
_cell_angle_gamma   90.00000000
_symmetry_Int_Tables_number   1
_chemical_formula_structural   Mo
_chemical_formula_sum   Mo16
_cell_volume   193.16366741
_cell_formula_units_Z   16
loop_
 _symmetry_equiv_pos_site_id
 _symmetry_equiv_pos_as_xyz
  1  'x, y, z'
loop_
 _atom_site_type_symbol
 _atom_site_label
 _atom_site_symmetry_multiplicity
 _atom_site_fract_x
 _atom_site_fract_y
 _atom_site_fract_z
 _atom_site_occupancy
  Mo  Mo0  1  0.09508600  7.21784000  0.01250280  1
  Mo  Mo1  1  1.77964000  1.86118000  -0.06093660  1
  Mo  Mo2  1  1.77624000  -0.03377570  1.76676000  1
  Mo  Mo3  1  7.38656000  1.83830000  1.70812000  1
  Mo  Mo4  1  3.53475000  0.14076700  3.66455000  1
  Mo  Mo5  1  5.42862000  1.75275000  0.01178410  1
  Mo  Mo6  1  5.46159000  -0.03234080  1.79858000  1
  Mo  Mo7  1  3.66404000  1.71844000  1.86289000  1
  Mo  Mo8  1  -0.06968830  3.59677000  3.64853000  1
  Mo  Mo9  1  1.86512000  5.43760000  0.02007580  1
  Mo  Mo10  1  1.79783000  3.61738000  1.83849000  1
  Mo  Mo11  1  7.33778000  5.41312000  1.78235000  1
  Mo  Mo12  1  3.60554000  3.65737000  3.70988000  1
  Mo  Mo13  1  5.42809000  5.57153000  3.70822000  1
  Mo  Mo14  1  5.51893000  3.64535000  1.82683000  1
  Mo  Mo15  1  3.61386000  5.53857000  1.81339000  1
