# generated using pymatgen
data_Mo
_symmetry_space_group_name_H-M   'P 1'
_cell_length_a   7.28313708
_cell_length_b   7.28313708
_cell_length_c   3.64156842
_cell_angle_alpha   90.00000000
_cell_angle_beta   90.00000000
_cell_angle_gamma   90.00000000
_symmetry_Int_Tables_number   1
_chemical_formula_structural   Mo
_chemical_formula_sum   Mo16
_cell_volume   193.16366741
_cell_formula_units_Z   16
loop_
 _symmetry_equiv_pos_site_id
 _symmetry_equiv_pos_as_xyz
  1  'x, y, z'
loop_
 _atom_site_type_symbol
 _atom_site_label
 _atom_site_symmetry_multiplicity
 _atom_site_fract_x
 _atom_site_fract_y
 _atom_site_fract_z
 _atom_site_occupancy
  Mo  Mo0  1  -0.00917137  7.34535000  0.03135150  1
  Mo  Mo1  1  1.75760000  1.83681000  0.02930840  1
  Mo  Mo2  1  1.82092000  -0.04888030  1.86084000  1
  Mo  Mo3  1  7.33521000  1.79288000  1.84300000  1
  Mo  Mo4  1  3.59451000  -0.07058890  3.71794000  1
  Mo  Mo5  1  5.37100000  1.78452000  -0.02499260  1
  Mo  Mo6  1  5.51354000  -0.04217120  1.84456000  1
  Mo  Mo7  1  3.62378000  1.82472000  1.88377000  1
  Mo  Mo8  1  0.04095400  3.73798000  3.63458000  1
  Mo  Mo9  1  1.81423000  5.56745000  -0.04361600  1
  Mo  Mo10  1  1.88031000  3.62296000  1.81558000  1
  Mo  Mo11  1  7.26609000  5.45293000  1.81594000  1
  Mo  Mo12  1  3.67662000  3.59307000  3.62919000  1
  Mo  Mo13  1  5.36612000  5.44308000  3.59754000  1
  Mo  Mo14  1  5.49243000  3.55998000  1.74556000  1
  Mo  Mo15  1  3.67987000  5.54079000  1.73145000  1
