# generated using pymatgen
data_Mo
_symmetry_space_group_name_H-M   'P 1'
_cell_length_a   7.28313708
_cell_length_b   7.28313708
_cell_length_c   3.64156842
_cell_angle_alpha   90.00000000
_cell_angle_beta   90.00000000
_cell_angle_gamma   90.00000000
_symmetry_Int_Tables_number   1
_chemical_formula_structural   Mo
_chemical_formula_sum   Mo16
_cell_volume   193.16366741
_cell_formula_units_Z   16
loop_
 _symmetry_equiv_pos_site_id
 _symmetry_equiv_pos_as_xyz
  1  'x, y, z'
loop_
 _atom_site_type_symbol
 _atom_site_label
 _atom_site_symmetry_multiplicity
 _atom_site_fract_x
 _atom_site_fract_y
 _atom_site_fract_z
 _atom_site_occupancy
  Mo  Mo0  1  -0.02174490  7.35284000  -0.07054260  1
  Mo  Mo1  1  1.79956000  1.76079000  -0.07824230  1
  Mo  Mo2  1  1.90171000  -0.03527890  1.77307000  1
  Mo  Mo3  1  7.30354000  1.76664000  1.78385000  1
  Mo  Mo4  1  3.64424000  -0.00785756  3.68343000  1
  Mo  Mo5  1  5.38093000  1.81532000  -0.06830670  1
  Mo  Mo6  1  5.49928000  0.01438270  1.82350000  1
  Mo  Mo7  1  3.66732000  1.94832000  1.81849000  1
  Mo  Mo8  1  -0.08215570  3.72427000  3.65192000  1
  Mo  Mo9  1  1.85113000  5.47078000  -0.00311213  1
  Mo  Mo10  1  1.82174000  3.61057000  1.85508000  1
  Mo  Mo11  1  7.26075000  5.37298000  1.82335000  1
  Mo  Mo12  1  3.64784000  3.66754000  3.67447000  1
  Mo  Mo13  1  5.33295000  5.43581000  3.76649000  1
  Mo  Mo14  1  5.50102000  3.64056000  1.86566000  1
  Mo  Mo15  1  3.71591000  5.40319000  1.81287000  1
