# generated using pymatgen
data_Mo
_symmetry_space_group_name_H-M   'P 1'
_cell_length_a   7.28313708
_cell_length_b   7.28313708
_cell_length_c   3.64156842
_cell_angle_alpha   90.00000000
_cell_angle_beta   90.00000000
_cell_angle_gamma   90.00000000
_symmetry_Int_Tables_number   1
_chemical_formula_structural   Mo
_chemical_formula_sum   Mo16
_cell_volume   193.16366741
_cell_formula_units_Z   16
loop_
 _symmetry_equiv_pos_site_id
 _symmetry_equiv_pos_as_xyz
  1  'x, y, z'
loop_
 _atom_site_type_symbol
 _atom_site_label
 _atom_site_symmetry_multiplicity
 _atom_site_fract_x
 _atom_site_fract_y
 _atom_site_fract_z
 _atom_site_occupancy
  Mo  Mo0  1  0.02142070  7.28180000  0.04916120  1
  Mo  Mo1  1  1.88429000  1.78395000  0.02948200  1
  Mo  Mo2  1  1.88419000  -0.01216470  1.79797000  1
  Mo  Mo3  1  7.25361000  1.77532000  1.92189000  1
  Mo  Mo4  1  3.73374000  -0.00363852  3.61690000  1
  Mo  Mo5  1  5.33655000  1.76907000  0.05348660  1
  Mo  Mo6  1  5.38969000  0.02135030  1.85638000  1
  Mo  Mo7  1  3.64399000  1.72960000  1.85720000  1
  Mo  Mo8  1  -0.04743160  3.60213000  3.60182000  1
  Mo  Mo9  1  1.89217000  5.46449000  -0.10882800  1
  Mo  Mo10  1  1.76574000  3.66913000  1.81183000  1
  Mo  Mo11  1  7.25425000  5.63963000  1.80968000  1
  Mo  Mo12  1  3.59129000  3.71082000  3.59980000  1
  Mo  Mo13  1  5.51474000  5.46798000  3.56519000  1
  Mo  Mo14  1  5.43355000  3.64719000  1.79846000  1
  Mo  Mo15  1  3.67222000  5.39421000  1.85158000  1
