# generated using pymatgen
data_Mo
_symmetry_space_group_name_H-M   'P 1'
_cell_length_a   7.28313708
_cell_length_b   7.28313708
_cell_length_c   3.64156842
_cell_angle_alpha   90.00000000
_cell_angle_beta   90.00000000
_cell_angle_gamma   90.00000000
_symmetry_Int_Tables_number   1
_chemical_formula_structural   Mo
_chemical_formula_sum   Mo16
_cell_volume   193.16366741
_cell_formula_units_Z   16
loop_
 _symmetry_equiv_pos_site_id
 _symmetry_equiv_pos_as_xyz
  1  'x, y, z'
loop_
 _atom_site_type_symbol
 _atom_site_label
 _atom_site_symmetry_multiplicity
 _atom_site_fract_x
 _atom_site_fract_y
 _atom_site_fract_z
 _atom_site_occupancy
  Mo  Mo0  1  0.02790420  7.22960000  0.03630690  1
  Mo  Mo1  1  1.71245000  1.82958000  -0.03952470  1
  Mo  Mo2  1  1.68121000  0.01822190  1.76841000  1
  Mo  Mo3  1  7.30032000  1.74670000  1.86193000  1
  Mo  Mo4  1  3.56625000  0.14558700  3.66709000  1
  Mo  Mo5  1  5.44135000  1.73869000  0.04187810  1
  Mo  Mo6  1  5.49762000  -0.04631160  1.81004000  1
  Mo  Mo7  1  3.76147000  1.72619000  1.82248000  1
  Mo  Mo8  1  -0.01357820  3.61116000  3.64284000  1
  Mo  Mo9  1  1.88978000  5.49297000  -0.04466740  1
  Mo  Mo10  1  1.85255000  3.66965000  1.76752000  1
  Mo  Mo11  1  7.27728000  5.50261000  1.72749000  1
  Mo  Mo12  1  3.60485000  3.68193000  3.64370000  1
  Mo  Mo13  1  5.42696000  5.46354000  3.70444000  1
  Mo  Mo14  1  5.52050000  3.63933000  1.87665000  1
  Mo  Mo15  1  3.67709000  5.49141000  1.82541000  1
