# generated using pymatgen
data_Mo
_symmetry_space_group_name_H-M   'P 1'
_cell_length_a   7.28313708
_cell_length_b   7.28313708
_cell_length_c   3.64156842
_cell_angle_alpha   90.00000000
_cell_angle_beta   90.00000000
_cell_angle_gamma   90.00000000
_symmetry_Int_Tables_number   1
_chemical_formula_structural   Mo
_chemical_formula_sum   Mo16
_cell_volume   193.16366741
_cell_formula_units_Z   16
loop_
 _symmetry_equiv_pos_site_id
 _symmetry_equiv_pos_as_xyz
  1  'x, y, z'
loop_
 _atom_site_type_symbol
 _atom_site_label
 _atom_site_symmetry_multiplicity
 _atom_site_fract_x
 _atom_site_fract_y
 _atom_site_fract_z
 _atom_site_occupancy
  Mo  Mo0  1  -0.03355300  7.36158000  -0.11008300  1
  Mo  Mo1  1  1.78455000  1.82893000  0.00987078  1
  Mo  Mo2  1  1.84806000  -0.02025370  1.85947000  1
  Mo  Mo3  1  7.27969000  1.82639000  1.78767000  1
  Mo  Mo4  1  3.60825000  -0.03100820  3.62298000  1
  Mo  Mo5  1  5.49697000  1.87500000  -0.06136930  1
  Mo  Mo6  1  5.46229000  0.03059230  1.81013000  1
  Mo  Mo7  1  3.61523000  1.80389000  1.79360000  1
  Mo  Mo8  1  0.04405910  3.64938000  3.62758000  1
  Mo  Mo9  1  1.65333000  5.38616000  0.05120000  1
  Mo  Mo10  1  1.83560000  3.61083000  1.88034000  1
  Mo  Mo11  1  7.34695000  5.37423000  1.87888000  1
  Mo  Mo12  1  3.60298000  3.67173000  3.58592000  1
  Mo  Mo13  1  5.48236000  5.41054000  3.62892000  1
  Mo  Mo14  1  5.52630000  3.66738000  1.87499000  1
  Mo  Mo15  1  3.67094000  5.49549000  1.87189000  1
