# generated using pymatgen
data_Mo
_symmetry_space_group_name_H-M   'P 1'
_cell_length_a   7.28313708
_cell_length_b   7.28313708
_cell_length_c   3.64156842
_cell_angle_alpha   90.00000000
_cell_angle_beta   90.00000000
_cell_angle_gamma   90.00000000
_symmetry_Int_Tables_number   1
_chemical_formula_structural   Mo
_chemical_formula_sum   Mo16
_cell_volume   193.16366741
_cell_formula_units_Z   16
loop_
 _symmetry_equiv_pos_site_id
 _symmetry_equiv_pos_as_xyz
  1  'x, y, z'
loop_
 _atom_site_type_symbol
 _atom_site_label
 _atom_site_symmetry_multiplicity
 _atom_site_fract_x
 _atom_site_fract_y
 _atom_site_fract_z
 _atom_site_occupancy
  Mo  Mo0  1  0.07217990  7.21469000  0.03240260  1
  Mo  Mo1  1  1.85769000  1.70279000  -0.01858430  1
  Mo  Mo2  1  1.71205000  -0.00975741  1.81872000  1
  Mo  Mo3  1  7.34668000  1.90474000  1.82801000  1
  Mo  Mo4  1  3.66360000  0.07304210  3.56116000  1
  Mo  Mo5  1  5.54663000  1.86390000  0.00586075  1
  Mo  Mo6  1  5.48778000  0.03517690  1.74432000  1
  Mo  Mo7  1  3.63303000  1.86115000  1.73357000  1
  Mo  Mo8  1  -0.09182050  3.56719000  3.70127000  1
  Mo  Mo9  1  1.85065000  5.39336000  0.12923500  1
  Mo  Mo10  1  1.77675000  3.61341000  1.85122000  1
  Mo  Mo11  1  7.26960000  5.43813000  1.79627000  1
  Mo  Mo12  1  3.60882000  3.66383000  3.63104000  1
  Mo  Mo13  1  5.45385000  5.56103000  3.66127000  1
  Mo  Mo14  1  5.37145000  3.64843000  1.83347000  1
  Mo  Mo15  1  3.66506000  5.40976000  1.80279000  1
