# generated using pymatgen
data_Mo
_symmetry_space_group_name_H-M   'P 1'
_cell_length_a   7.28313708
_cell_length_b   7.28313708
_cell_length_c   3.64156842
_cell_angle_alpha   90.00000000
_cell_angle_beta   90.00000000
_cell_angle_gamma   90.00000000
_symmetry_Int_Tables_number   1
_chemical_formula_structural   Mo
_chemical_formula_sum   Mo16
_cell_volume   193.16366741
_cell_formula_units_Z   16
loop_
 _symmetry_equiv_pos_site_id
 _symmetry_equiv_pos_as_xyz
  1  'x, y, z'
loop_
 _atom_site_type_symbol
 _atom_site_label
 _atom_site_symmetry_multiplicity
 _atom_site_fract_x
 _atom_site_fract_y
 _atom_site_fract_z
 _atom_site_occupancy
  Mo  Mo0  1  -0.09489870  7.33172000  0.02267250  1
  Mo  Mo1  1  1.84762000  1.82412000  -0.06002110  1
  Mo  Mo2  1  1.83595000  -0.08928500  1.81540000  1
  Mo  Mo3  1  7.25722000  1.76394000  1.84507000  1
  Mo  Mo4  1  3.69398000  0.00139325  3.59165000  1
  Mo  Mo5  1  5.45792000  1.86394000  -0.08699650  1
  Mo  Mo6  1  5.45000000  -0.03478270  1.90746000  1
  Mo  Mo7  1  3.69076000  1.84943000  1.80057000  1
  Mo  Mo8  1  -0.07117850  3.65328000  3.72399000  1
  Mo  Mo9  1  1.89362000  5.52786000  0.00373955  1
  Mo  Mo10  1  1.87962000  3.55178000  1.85243000  1
  Mo  Mo11  1  7.31461000  5.47855000  1.85785000  1
  Mo  Mo12  1  3.59018000  3.60022000  3.61013000  1
  Mo  Mo13  1  5.47736000  5.43967000  3.59728000  1
  Mo  Mo14  1  5.30465000  3.65434000  1.83087000  1
  Mo  Mo15  1  3.69660000  5.52468000  1.79989000  1
