# generated using pymatgen
data_Mo
_symmetry_space_group_name_H-M   'P 1'
_cell_length_a   7.28313708
_cell_length_b   7.28313708
_cell_length_c   3.64156842
_cell_angle_alpha   90.00000000
_cell_angle_beta   90.00000000
_cell_angle_gamma   90.00000000
_symmetry_Int_Tables_number   1
_chemical_formula_structural   Mo
_chemical_formula_sum   Mo16
_cell_volume   193.16366741
_cell_formula_units_Z   16
loop_
 _symmetry_equiv_pos_site_id
 _symmetry_equiv_pos_as_xyz
  1  'x, y, z'
loop_
 _atom_site_type_symbol
 _atom_site_label
 _atom_site_symmetry_multiplicity
 _atom_site_fract_x
 _atom_site_fract_y
 _atom_site_fract_z
 _atom_site_occupancy
  Mo  Mo0  1  0.04162080  7.22857000  -0.03889510  1
  Mo  Mo1  1  1.89344000  1.87541000  0.02809340  1
  Mo  Mo2  1  1.83350000  -0.02292430  1.74956000  1
  Mo  Mo3  1  7.30353000  1.78046000  1.76893000  1
  Mo  Mo4  1  3.68733000  0.02308690  3.62732000  1
  Mo  Mo5  1  5.43521000  1.83575000  0.00325284  1
  Mo  Mo6  1  5.49840000  0.06457080  1.79439000  1
  Mo  Mo7  1  3.60701000  1.77482000  1.84899000  1
  Mo  Mo8  1  0.02839340  3.60078000  3.71980000  1
  Mo  Mo9  1  1.85700000  5.37901000  -0.04270840  1
  Mo  Mo10  1  1.69392000  3.68034000  1.81049000  1
  Mo  Mo11  1  7.20990000  5.48827000  1.83004000  1
  Mo  Mo12  1  3.64348000  3.66171000  3.71743000  1
  Mo  Mo13  1  5.51470000  5.44336000  3.65160000  1
  Mo  Mo14  1  5.41195000  3.64063000  1.81651000  1
  Mo  Mo15  1  3.56462000  5.48702000  1.82717000  1
