# generated using pymatgen
data_Mo
_symmetry_space_group_name_H-M   'P 1'
_cell_length_a   7.28313708
_cell_length_b   7.28313708
_cell_length_c   3.64156842
_cell_angle_alpha   90.00000000
_cell_angle_beta   90.00000000
_cell_angle_gamma   90.00000000
_symmetry_Int_Tables_number   1
_chemical_formula_structural   Mo
_chemical_formula_sum   Mo16
_cell_volume   193.16366741
_cell_formula_units_Z   16
loop_
 _symmetry_equiv_pos_site_id
 _symmetry_equiv_pos_as_xyz
  1  'x, y, z'
loop_
 _atom_site_type_symbol
 _atom_site_label
 _atom_site_symmetry_multiplicity
 _atom_site_fract_x
 _atom_site_fract_y
 _atom_site_fract_z
 _atom_site_occupancy
  Mo  Mo0  1  -0.10442400  7.24550000  0.02028050  1
  Mo  Mo1  1  1.78217000  1.79125000  -0.00446162  1
  Mo  Mo2  1  1.78038000  0.02762250  1.81548000  1
  Mo  Mo3  1  7.24141000  1.80490000  1.84314000  1
  Mo  Mo4  1  3.73254000  -0.04464800  3.61962000  1
  Mo  Mo5  1  5.58318000  1.77707000  0.08814740  1
  Mo  Mo6  1  5.48261000  -0.00505625  1.85347000  1
  Mo  Mo7  1  3.55476000  1.88321000  1.79548000  1
  Mo  Mo8  1  0.02589930  3.71365000  3.67143000  1
  Mo  Mo9  1  1.78072000  5.51549000  -0.07026330  1
  Mo  Mo10  1  1.85284000  3.64381000  1.76486000  1
  Mo  Mo11  1  7.29255000  5.42145000  1.84067000  1
  Mo  Mo12  1  3.78004000  3.55024000  3.61733000  1
  Mo  Mo13  1  5.45437000  5.49954000  3.63327000  1
  Mo  Mo14  1  5.35946000  3.59924000  1.85025000  1
  Mo  Mo15  1  3.62549000  5.51759000  1.77328000  1
