# generated using pymatgen
data_Mo
_symmetry_space_group_name_H-M   'P 1'
_cell_length_a   7.28313708
_cell_length_b   7.28313708
_cell_length_c   3.64156842
_cell_angle_alpha   90.00000000
_cell_angle_beta   90.00000000
_cell_angle_gamma   90.00000000
_symmetry_Int_Tables_number   1
_chemical_formula_structural   Mo
_chemical_formula_sum   Mo16
_cell_volume   193.16366741
_cell_formula_units_Z   16
loop_
 _symmetry_equiv_pos_site_id
 _symmetry_equiv_pos_as_xyz
  1  'x, y, z'
loop_
 _atom_site_type_symbol
 _atom_site_label
 _atom_site_symmetry_multiplicity
 _atom_site_fract_x
 _atom_site_fract_y
 _atom_site_fract_z
 _atom_site_occupancy
  Mo  Mo0  1  0.00833016  7.18007000  -0.05049060  1
  Mo  Mo1  1  1.77781000  1.85069000  0.02660860  1
  Mo  Mo2  1  1.85172000  0.09851050  1.77219000  1
  Mo  Mo3  1  7.22064000  1.82348000  1.84069000  1
  Mo  Mo4  1  3.64859000  -0.02133640  3.63660000  1
  Mo  Mo5  1  5.48108000  1.86297000  0.13743600  1
  Mo  Mo6  1  5.49768000  -0.06932640  1.79492000  1
  Mo  Mo7  1  3.60139000  1.81356000  1.84816000  1
  Mo  Mo8  1  0.05810520  3.63238000  3.53049000  1
  Mo  Mo9  1  1.80428000  5.49939000  -0.01558250  1
  Mo  Mo10  1  1.83249000  3.69875000  1.79526000  1
  Mo  Mo11  1  7.24847000  5.46180000  1.80793000  1
  Mo  Mo12  1  3.63190000  3.62218000  3.66195000  1
  Mo  Mo13  1  5.43846000  5.42579000  3.60238000  1
  Mo  Mo14  1  5.53283000  3.62881000  1.82802000  1
  Mo  Mo15  1  3.59023000  5.43314000  1.89545000  1
