# generated using pymatgen
data_Mo
_symmetry_space_group_name_H-M   'P 1'
_cell_length_a   7.28313708
_cell_length_b   7.28313708
_cell_length_c   3.64156842
_cell_angle_alpha   90.00000000
_cell_angle_beta   90.00000000
_cell_angle_gamma   90.00000000
_symmetry_Int_Tables_number   1
_chemical_formula_structural   Mo
_chemical_formula_sum   Mo16
_cell_volume   193.16366741
_cell_formula_units_Z   16
loop_
 _symmetry_equiv_pos_site_id
 _symmetry_equiv_pos_as_xyz
  1  'x, y, z'
loop_
 _atom_site_type_symbol
 _atom_site_label
 _atom_site_symmetry_multiplicity
 _atom_site_fract_x
 _atom_site_fract_y
 _atom_site_fract_z
 _atom_site_occupancy
  Mo  Mo0  1  -0.07692240  7.29984000  0.01605240  1
  Mo  Mo1  1  1.90143000  1.77397000  0.10592800  1
  Mo  Mo2  1  1.77060000  -0.03561840  1.86727000  1
  Mo  Mo3  1  7.25629000  1.83503000  1.87286000  1
  Mo  Mo4  1  3.63497000  0.03640620  3.63862000  1
  Mo  Mo5  1  5.42471000  1.77396000  0.01079110  1
  Mo  Mo6  1  5.41547000  0.00956304  1.75199000  1
  Mo  Mo7  1  3.65484000  1.76001000  1.76450000  1
  Mo  Mo8  1  -0.02809650  3.59821000  3.60959000  1
  Mo  Mo9  1  1.72749000  5.43054000  0.03133600  1
  Mo  Mo10  1  1.98514000  3.67314000  1.84061000  1
  Mo  Mo11  1  7.27524000  5.50041000  1.82642000  1
  Mo  Mo12  1  3.62723000  3.66901000  3.59978000  1
  Mo  Mo13  1  5.49179000  5.50136000  3.56005000  1
  Mo  Mo14  1  5.45636000  3.65829000  1.77873000  1
  Mo  Mo15  1  3.70745000  5.45673000  1.83745000  1
