# generated using pymatgen
data_Mo
_symmetry_space_group_name_H-M   'P 1'
_cell_length_a   7.28313708
_cell_length_b   7.28313708
_cell_length_c   3.64156842
_cell_angle_alpha   90.00000000
_cell_angle_beta   90.00000000
_cell_angle_gamma   90.00000000
_symmetry_Int_Tables_number   1
_chemical_formula_structural   Mo
_chemical_formula_sum   Mo16
_cell_volume   193.16366741
_cell_formula_units_Z   16
loop_
 _symmetry_equiv_pos_site_id
 _symmetry_equiv_pos_as_xyz
  1  'x, y, z'
loop_
 _atom_site_type_symbol
 _atom_site_label
 _atom_site_symmetry_multiplicity
 _atom_site_fract_x
 _atom_site_fract_y
 _atom_site_fract_z
 _atom_site_occupancy
  Mo  Mo0  1  0.10517000  7.26486000  -0.04308490  1
  Mo  Mo1  1  1.82568000  1.79437000  -0.09249950  1
  Mo  Mo2  1  1.75266000  -0.01896860  1.76868000  1
  Mo  Mo3  1  7.33179000  1.83534000  1.86310000  1
  Mo  Mo4  1  3.58691000  -0.04430420  3.58591000  1
  Mo  Mo5  1  5.37500000  1.70243000  0.04208670  1
  Mo  Mo6  1  5.46889000  0.03240200  1.85590000  1
  Mo  Mo7  1  3.62339000  1.84436000  1.89453000  1
  Mo  Mo8  1  0.02853560  3.64497000  3.68552000  1
  Mo  Mo9  1  1.84863000  5.53311000  -0.02842660  1
  Mo  Mo10  1  1.88708000  3.62519000  1.77821000  1
  Mo  Mo11  1  7.16313000  5.53828000  1.74098000  1
  Mo  Mo12  1  3.69910000  3.67603000  3.65914000  1
  Mo  Mo13  1  5.44280000  5.51973000  3.69568000  1
  Mo  Mo14  1  5.52191000  3.58234000  1.84591000  1
  Mo  Mo15  1  3.56334000  5.41072000  1.86038000  1
