# generated using pymatgen
data_Mo
_symmetry_space_group_name_H-M   'P 1'
_cell_length_a   7.28313708
_cell_length_b   7.28313708
_cell_length_c   3.64156842
_cell_angle_alpha   90.00000000
_cell_angle_beta   90.00000000
_cell_angle_gamma   90.00000000
_symmetry_Int_Tables_number   1
_chemical_formula_structural   Mo
_chemical_formula_sum   Mo16
_cell_volume   193.16366741
_cell_formula_units_Z   16
loop_
 _symmetry_equiv_pos_site_id
 _symmetry_equiv_pos_as_xyz
  1  'x, y, z'
loop_
 _atom_site_type_symbol
 _atom_site_label
 _atom_site_symmetry_multiplicity
 _atom_site_fract_x
 _atom_site_fract_y
 _atom_site_fract_z
 _atom_site_occupancy
  Mo  Mo0  1  -0.04603770  7.30171000  0.10147400  1
  Mo  Mo1  1  1.80814000  1.76016000  0.08108610  1
  Mo  Mo2  1  1.91128000  0.01400800  1.85323000  1
  Mo  Mo3  1  7.22444000  1.93164000  1.83304000  1
  Mo  Mo4  1  3.77287000  -0.08170830  3.60521000  1
  Mo  Mo5  1  5.58657000  1.90844000  0.00637206  1
  Mo  Mo6  1  5.39819000  0.03221540  1.82395000  1
  Mo  Mo7  1  3.56208000  1.87754000  1.72015000  1
  Mo  Mo8  1  0.00692628  3.77158000  3.70254000  1
  Mo  Mo9  1  1.79814000  5.45703000  -0.00523432  1
  Mo  Mo10  1  1.77851000  3.62220000  1.83481000  1
  Mo  Mo11  1  7.30859000  5.35296000  1.81917000  1
  Mo  Mo12  1  3.72235000  3.51976000  3.59584000  1
  Mo  Mo13  1  5.45564000  5.40696000  3.62394000  1
  Mo  Mo14  1  5.31852000  3.64976000  1.74688000  1
  Mo  Mo15  1  3.61779000  5.41661000  1.76954000  1
