# generated using pymatgen
data_Mo
_symmetry_space_group_name_H-M   'P 1'
_cell_length_a   7.27806742
_cell_length_b   7.27806742
_cell_length_c   3.63903379
_cell_angle_alpha   90.00000000
_cell_angle_beta   90.00000000
_cell_angle_gamma   90.00000000
_symmetry_Int_Tables_number   1
_chemical_formula_structural   Mo
_chemical_formula_sum   Mo16
_cell_volume   192.76058556
_cell_formula_units_Z   16
loop_
 _symmetry_equiv_pos_site_id
 _symmetry_equiv_pos_as_xyz
  1  'x, y, z'
loop_
 _atom_site_type_symbol
 _atom_site_label
 _atom_site_symmetry_multiplicity
 _atom_site_fract_x
 _atom_site_fract_y
 _atom_site_fract_z
 _atom_site_occupancy
  Mo  Mo0  1  0.01138310  7.26327000  3.62572000  1
  Mo  Mo1  1  1.82212000  1.83362000  0.00853734  1
  Mo  Mo2  1  1.82140000  7.28395000  1.80192000  1
  Mo  Mo3  1  7.28858000  1.81782000  1.80588000  1
  Mo  Mo4  1  3.64628000  7.27430000  -0.02504440  1
  Mo  Mo5  1  5.47969000  1.81563000  -0.01769730  1
  Mo  Mo6  1  5.47041000  0.00803432  1.82310000  1
  Mo  Mo7  1  3.63692000  1.81285000  1.81464000  1
  Mo  Mo8  1  7.28043000  3.64945000  3.66384000  1
  Mo  Mo9  1  1.82149000  5.45869000  3.66852000  1
  Mo  Mo10  1  1.79306000  3.60492000  1.84403000  1
  Mo  Mo11  1  -0.00995001  5.47167000  1.83763000  1
  Mo  Mo12  1  3.61619000  3.65111000  3.62476000  1
  Mo  Mo13  1  5.46302000  5.45801000  3.63319000  1
  Mo  Mo14  1  5.44112000  3.62436000  1.80834000  1
  Mo  Mo15  1  3.64186000  5.47438000  1.83366000  1
