# generated using pymatgen
data_Mo
_symmetry_space_group_name_H-M   'P 1'
_cell_length_a   7.28313708
_cell_length_b   7.28313708
_cell_length_c   3.64156842
_cell_angle_alpha   90.00000000
_cell_angle_beta   90.00000000
_cell_angle_gamma   90.00000000
_symmetry_Int_Tables_number   1
_chemical_formula_structural   Mo
_chemical_formula_sum   Mo16
_cell_volume   193.16366741
_cell_formula_units_Z   16
loop_
 _symmetry_equiv_pos_site_id
 _symmetry_equiv_pos_as_xyz
  1  'x, y, z'
loop_
 _atom_site_type_symbol
 _atom_site_label
 _atom_site_symmetry_multiplicity
 _atom_site_fract_x
 _atom_site_fract_y
 _atom_site_fract_z
 _atom_site_occupancy
  Mo  Mo0  1  -0.00017498  7.28731000  0.00484874  1
  Mo  Mo1  1  1.88209000  1.89260000  -0.14165600  1
  Mo  Mo2  1  1.81466000  0.02105360  1.81082000  1
  Mo  Mo3  1  7.25365000  1.84697000  1.77056000  1
  Mo  Mo4  1  3.65502000  -0.05985100  3.65133000  1
  Mo  Mo5  1  5.40688000  1.87046000  -0.01146100  1
  Mo  Mo6  1  5.51202000  0.00217245  1.90643000  1
  Mo  Mo7  1  3.60638000  1.80407000  1.82232000  1
  Mo  Mo8  1  0.00423745  3.59803000  3.60888000  1
  Mo  Mo9  1  1.93617000  5.44796000  0.00217323  1
  Mo  Mo10  1  1.81409000  3.67060000  1.74000000  1
  Mo  Mo11  1  7.18851000  5.42425000  1.86371000  1
  Mo  Mo12  1  3.70325000  3.68252000  3.65400000  1
  Mo  Mo13  1  5.47608000  5.37102000  3.67792000  1
  Mo  Mo14  1  5.35326000  3.62255000  1.84513000  1
  Mo  Mo15  1  3.61786000  5.45917000  1.90698000  1
