# generated using pymatgen
data_Mo
_symmetry_space_group_name_H-M   'P 1'
_cell_length_a   7.28313708
_cell_length_b   7.28313708
_cell_length_c   3.64156842
_cell_angle_alpha   90.00000000
_cell_angle_beta   90.00000000
_cell_angle_gamma   90.00000000
_symmetry_Int_Tables_number   1
_chemical_formula_structural   Mo
_chemical_formula_sum   Mo16
_cell_volume   193.16366741
_cell_formula_units_Z   16
loop_
 _symmetry_equiv_pos_site_id
 _symmetry_equiv_pos_as_xyz
  1  'x, y, z'
loop_
 _atom_site_type_symbol
 _atom_site_label
 _atom_site_symmetry_multiplicity
 _atom_site_fract_x
 _atom_site_fract_y
 _atom_site_fract_z
 _atom_site_occupancy
  Mo  Mo0  1  -0.05501870  7.23374000  -0.05315040  1
  Mo  Mo1  1  1.83994000  1.76440000  -0.03022120  1
  Mo  Mo2  1  1.90210000  0.06090620  1.88927000  1
  Mo  Mo3  1  7.26959000  1.65258000  1.76073000  1
  Mo  Mo4  1  3.64087000  0.02328140  3.63434000  1
  Mo  Mo5  1  5.59642000  1.80235000  -0.03294240  1
  Mo  Mo6  1  5.31743000  0.00183257  1.84516000  1
  Mo  Mo7  1  3.52128000  1.85036000  1.81436000  1
  Mo  Mo8  1  0.09298950  3.66112000  3.60762000  1
  Mo  Mo9  1  1.79663000  5.50585000  -0.03676470  1
  Mo  Mo10  1  1.73179000  3.69258000  1.86810000  1
  Mo  Mo11  1  7.28590000  5.45961000  1.75356000  1
  Mo  Mo12  1  3.70297000  3.63653000  3.64713000  1
  Mo  Mo13  1  5.52029000  5.40810000  3.62917000  1
  Mo  Mo14  1  5.46950000  3.60684000  1.86243000  1
  Mo  Mo15  1  3.59132000  5.58078000  1.95322000  1
