# generated using pymatgen
data_Mo
_symmetry_space_group_name_H-M   'P 1'
_cell_length_a   7.28313708
_cell_length_b   7.28313708
_cell_length_c   3.64156842
_cell_angle_alpha   90.00000000
_cell_angle_beta   90.00000000
_cell_angle_gamma   90.00000000
_symmetry_Int_Tables_number   1
_chemical_formula_structural   Mo
_chemical_formula_sum   Mo16
_cell_volume   193.16366741
_cell_formula_units_Z   16
loop_
 _symmetry_equiv_pos_site_id
 _symmetry_equiv_pos_as_xyz
  1  'x, y, z'
loop_
 _atom_site_type_symbol
 _atom_site_label
 _atom_site_symmetry_multiplicity
 _atom_site_fract_x
 _atom_site_fract_y
 _atom_site_fract_z
 _atom_site_occupancy
  Mo  Mo0  1  0.01798980  7.25798000  -0.02996710  1
  Mo  Mo1  1  1.84500000  1.72688000  -0.07736970  1
  Mo  Mo2  1  1.78404000  0.01516010  1.81413000  1
  Mo  Mo3  1  7.28180000  1.83685000  1.81235000  1
  Mo  Mo4  1  3.62326000  0.05435640  3.58197000  1
  Mo  Mo5  1  5.45541000  1.76455000  -0.07319900  1
  Mo  Mo6  1  5.43440000  -0.04824350  1.86505000  1
  Mo  Mo7  1  3.61668000  1.88758000  1.87379000  1
  Mo  Mo8  1  -0.09788510  3.65738000  3.71484000  1
  Mo  Mo9  1  1.93665000  5.44654000  -0.03447030  1
  Mo  Mo10  1  1.74354000  3.62097000  1.89275000  1
  Mo  Mo11  1  7.35229000  5.49086000  1.79495000  1
  Mo  Mo12  1  3.59144000  3.62762000  3.62760000  1
  Mo  Mo13  1  5.49788000  5.55387000  3.69714000  1
  Mo  Mo14  1  5.46425000  3.66645000  1.88592000  1
  Mo  Mo15  1  3.67728000  5.38206000  1.76651000  1
