# generated using pymatgen
data_Mo
_symmetry_space_group_name_H-M   'P 1'
_cell_length_a   7.28313708
_cell_length_b   7.28313708
_cell_length_c   3.64156842
_cell_angle_alpha   90.00000000
_cell_angle_beta   90.00000000
_cell_angle_gamma   90.00000000
_symmetry_Int_Tables_number   1
_chemical_formula_structural   Mo
_chemical_formula_sum   Mo16
_cell_volume   193.16366741
_cell_formula_units_Z   16
loop_
 _symmetry_equiv_pos_site_id
 _symmetry_equiv_pos_as_xyz
  1  'x, y, z'
loop_
 _atom_site_type_symbol
 _atom_site_label
 _atom_site_symmetry_multiplicity
 _atom_site_fract_x
 _atom_site_fract_y
 _atom_site_fract_z
 _atom_site_occupancy
  Mo  Mo0  1  -0.06461610  7.38047000  -0.06442690  1
  Mo  Mo1  1  1.83030000  1.76972000  -0.03036750  1
  Mo  Mo2  1  1.85297000  -0.03208820  1.89880000  1
  Mo  Mo3  1  7.33884000  1.80835000  1.88593000  1
  Mo  Mo4  1  3.56358000  -0.08532900  3.63671000  1
  Mo  Mo5  1  5.48828000  1.84775000  -0.11285700  1
  Mo  Mo6  1  5.40078000  0.02837990  1.82597000  1
  Mo  Mo7  1  3.62105000  1.92892000  1.78704000  1
  Mo  Mo8  1  0.07490480  3.64483000  3.63614000  1
  Mo  Mo9  1  1.77621000  5.50101000  0.03944150  1
  Mo  Mo10  1  1.76246000  3.62537000  1.87826000  1
  Mo  Mo11  1  7.24914000  5.35459000  1.77445000  1
  Mo  Mo12  1  3.72748000  3.62281000  3.62571000  1
  Mo  Mo13  1  5.42983000  5.48032000  3.63960000  1
  Mo  Mo14  1  5.57127000  3.64316000  1.82604000  1
  Mo  Mo15  1  3.60153000  5.42259000  1.86557000  1
