# generated using pymatgen
data_Mo
_symmetry_space_group_name_H-M   'P 1'
_cell_length_a   7.28313708
_cell_length_b   7.28313708
_cell_length_c   3.64156842
_cell_angle_alpha   90.00000000
_cell_angle_beta   90.00000000
_cell_angle_gamma   90.00000000
_symmetry_Int_Tables_number   1
_chemical_formula_structural   Mo
_chemical_formula_sum   Mo16
_cell_volume   193.16366741
_cell_formula_units_Z   16
loop_
 _symmetry_equiv_pos_site_id
 _symmetry_equiv_pos_as_xyz
  1  'x, y, z'
loop_
 _atom_site_type_symbol
 _atom_site_label
 _atom_site_symmetry_multiplicity
 _atom_site_fract_x
 _atom_site_fract_y
 _atom_site_fract_z
 _atom_site_occupancy
  Mo  Mo0  1  -0.04073270  7.26398000  -0.02858190  1
  Mo  Mo1  1  1.81587000  1.84342000  0.04501770  1
  Mo  Mo2  1  1.81291000  0.03054800  1.84042000  1
  Mo  Mo3  1  7.25465000  1.93626000  1.85088000  1
  Mo  Mo4  1  3.73427000  0.00314450  3.65346000  1
  Mo  Mo5  1  5.39043000  1.75092000  -0.02830620  1
  Mo  Mo6  1  5.36895000  0.04571540  1.76573000  1
  Mo  Mo7  1  3.65350000  1.80192000  1.88990000  1
  Mo  Mo8  1  0.01569710  3.63767000  3.66983000  1
  Mo  Mo9  1  1.86540000  5.44413000  0.04968420  1
  Mo  Mo10  1  1.84164000  3.65235000  1.77908000  1
  Mo  Mo11  1  7.15727000  5.45073000  1.75586000  1
  Mo  Mo12  1  3.74715000  3.67072000  3.69315000  1
  Mo  Mo13  1  5.43616000  5.43404000  3.64569000  1
  Mo  Mo14  1  5.56854000  3.60351000  1.72822000  1
  Mo  Mo15  1  3.60230000  5.37179000  1.80197000  1
