# generated using pymatgen
data_Mo
_symmetry_space_group_name_H-M   'P 1'
_cell_length_a   7.28313708
_cell_length_b   7.28313708
_cell_length_c   3.64156842
_cell_angle_alpha   90.00000000
_cell_angle_beta   90.00000000
_cell_angle_gamma   90.00000000
_symmetry_Int_Tables_number   1
_chemical_formula_structural   Mo
_chemical_formula_sum   Mo16
_cell_volume   193.16366741
_cell_formula_units_Z   16
loop_
 _symmetry_equiv_pos_site_id
 _symmetry_equiv_pos_as_xyz
  1  'x, y, z'
loop_
 _atom_site_type_symbol
 _atom_site_label
 _atom_site_symmetry_multiplicity
 _atom_site_fract_x
 _atom_site_fract_y
 _atom_site_fract_z
 _atom_site_occupancy
  Mo  Mo0  1  -0.01187440  7.31620000  0.05500190  1
  Mo  Mo1  1  1.83680000  1.85181000  0.02025270  1
  Mo  Mo2  1  1.79830000  -0.00080302  1.87504000  1
  Mo  Mo3  1  7.32824000  1.85990000  1.72682000  1
  Mo  Mo4  1  3.69575000  -0.05277040  3.61670000  1
  Mo  Mo5  1  5.40433000  1.78888000  -0.00448695  1
  Mo  Mo6  1  5.48373000  0.06821780  1.76365000  1
  Mo  Mo7  1  3.65955000  1.81848000  1.90964000  1
  Mo  Mo8  1  0.00361121  3.71525000  3.71279000  1
  Mo  Mo9  1  1.84206000  5.42943000  0.06704050  1
  Mo  Mo10  1  1.86464000  3.62630000  1.86698000  1
  Mo  Mo11  1  7.06114000  5.35801000  1.76450000  1
  Mo  Mo12  1  3.73440000  3.70327000  3.62311000  1
  Mo  Mo13  1  5.41541000  5.40631000  3.61916000  1
  Mo  Mo14  1  5.48228000  3.59553000  1.73003000  1
  Mo  Mo15  1  3.62562000  5.45685000  1.76578000  1
