# generated using pymatgen
data_Mo
_symmetry_space_group_name_H-M   'P 1'
_cell_length_a   7.27806742
_cell_length_b   7.27806742
_cell_length_c   3.63903379
_cell_angle_alpha   90.00000000
_cell_angle_beta   90.00000000
_cell_angle_gamma   90.00000000
_symmetry_Int_Tables_number   1
_chemical_formula_structural   Mo
_chemical_formula_sum   Mo16
_cell_volume   192.76058556
_cell_formula_units_Z   16
loop_
 _symmetry_equiv_pos_site_id
 _symmetry_equiv_pos_as_xyz
  1  'x, y, z'
loop_
 _atom_site_type_symbol
 _atom_site_label
 _atom_site_symmetry_multiplicity
 _atom_site_fract_x
 _atom_site_fract_y
 _atom_site_fract_z
 _atom_site_occupancy
  Mo  Mo0  1  -0.00060375  7.29631000  3.63795000  1
  Mo  Mo1  1  1.81334000  1.79753000  -0.00774084  1
  Mo  Mo2  1  1.79567000  7.25433000  1.81318000  1
  Mo  Mo3  1  7.26245000  1.82727000  1.82445000  1
  Mo  Mo4  1  3.62702000  7.29036000  0.02877080  1
  Mo  Mo5  1  5.48085000  1.82536000  0.01830110  1
  Mo  Mo6  1  5.44801000  -0.01989430  1.83903000  1
  Mo  Mo7  1  3.64217000  1.83163000  1.85707000  1
  Mo  Mo8  1  7.28470000  3.63320000  3.62513000  1
  Mo  Mo9  1  1.82276000  5.47754000  3.61608000  1
  Mo  Mo10  1  1.82315000  3.66333000  1.82710000  1
  Mo  Mo11  1  0.02242320  5.45881000  1.79394000  1
  Mo  Mo12  1  3.64409000  3.61548000  3.59258000  1
  Mo  Mo13  1  5.46544000  5.45924000  3.65329000  1
  Mo  Mo14  1  5.45788000  3.62909000  1.81066000  1
  Mo  Mo15  1  3.63465000  5.46247000  1.82122000  1
