# generated using pymatgen
data_Mo
_symmetry_space_group_name_H-M   'P 1'
_cell_length_a   7.28313708
_cell_length_b   7.28313708
_cell_length_c   3.64156842
_cell_angle_alpha   90.00000000
_cell_angle_beta   90.00000000
_cell_angle_gamma   90.00000000
_symmetry_Int_Tables_number   1
_chemical_formula_structural   Mo
_chemical_formula_sum   Mo16
_cell_volume   193.16366741
_cell_formula_units_Z   16
loop_
 _symmetry_equiv_pos_site_id
 _symmetry_equiv_pos_as_xyz
  1  'x, y, z'
loop_
 _atom_site_type_symbol
 _atom_site_label
 _atom_site_symmetry_multiplicity
 _atom_site_fract_x
 _atom_site_fract_y
 _atom_site_fract_z
 _atom_site_occupancy
  Mo  Mo0  1  0.01670490  7.31326000  0.00832764  1
  Mo  Mo1  1  1.82420000  1.87523000  0.00751793  1
  Mo  Mo2  1  1.84761000  -0.06753650  1.76165000  1
  Mo  Mo3  1  7.32529000  1.80730000  1.79636000  1
  Mo  Mo4  1  3.59388000  0.02346890  3.69911000  1
  Mo  Mo5  1  5.52042000  1.84188000  0.04032360  1
  Mo  Mo6  1  5.48278000  0.04584800  1.85428000  1
  Mo  Mo7  1  3.54705000  1.74931000  1.73518000  1
  Mo  Mo8  1  -0.08855750  3.58268000  3.61409000  1
  Mo  Mo9  1  1.69450000  5.32819000  0.03494750  1
  Mo  Mo10  1  1.75180000  3.73598000  1.83522000  1
  Mo  Mo11  1  7.41350000  5.42725000  1.92027000  1
  Mo  Mo12  1  3.60229000  3.65216000  3.64887000  1
  Mo  Mo13  1  5.54438000  5.49988000  3.57989000  1
  Mo  Mo14  1  5.41459000  3.62934000  1.80550000  1
  Mo  Mo15  1  3.73358000  5.49663000  1.77046000  1
