# generated using pymatgen
data_Mo
_symmetry_space_group_name_H-M   'P 1'
_cell_length_a   7.28313708
_cell_length_b   7.28313708
_cell_length_c   3.64156842
_cell_angle_alpha   90.00000000
_cell_angle_beta   90.00000000
_cell_angle_gamma   90.00000000
_symmetry_Int_Tables_number   1
_chemical_formula_structural   Mo
_chemical_formula_sum   Mo16
_cell_volume   193.16366741
_cell_formula_units_Z   16
loop_
 _symmetry_equiv_pos_site_id
 _symmetry_equiv_pos_as_xyz
  1  'x, y, z'
loop_
 _atom_site_type_symbol
 _atom_site_label
 _atom_site_symmetry_multiplicity
 _atom_site_fract_x
 _atom_site_fract_y
 _atom_site_fract_z
 _atom_site_occupancy
  Mo  Mo0  1  0.02168430  7.29304000  -0.05068150  1
  Mo  Mo1  1  1.81823000  1.83055000  -0.06991300  1
  Mo  Mo2  1  1.85608000  -0.04633720  1.80756000  1
  Mo  Mo3  1  7.30986000  1.86562000  1.80762000  1
  Mo  Mo4  1  3.67054000  0.00286338  3.68866000  1
  Mo  Mo5  1  5.41975000  1.80314000  -0.00331040  1
  Mo  Mo6  1  5.49692000  -0.02518460  1.85784000  1
  Mo  Mo7  1  3.65826000  1.91052000  1.75915000  1
  Mo  Mo8  1  -0.07153650  3.63673000  3.58151000  1
  Mo  Mo9  1  1.72801000  5.46594000  -0.00198185  1
  Mo  Mo10  1  1.91249000  3.65394000  1.79723000  1
  Mo  Mo11  1  7.32877000  5.40759000  1.78089000  1
  Mo  Mo12  1  3.54430000  3.64201000  3.60924000  1
  Mo  Mo13  1  5.42724000  5.47672000  3.75564000  1
  Mo  Mo14  1  5.38649000  3.59431000  1.87823000  1
  Mo  Mo15  1  3.71691000  5.42941000  1.91431000  1
