# generated using pymatgen
data_Mo
_symmetry_space_group_name_H-M   'P 1'
_cell_length_a   7.28313708
_cell_length_b   7.28313708
_cell_length_c   3.64156842
_cell_angle_alpha   90.00000000
_cell_angle_beta   90.00000000
_cell_angle_gamma   90.00000000
_symmetry_Int_Tables_number   1
_chemical_formula_structural   Mo
_chemical_formula_sum   Mo16
_cell_volume   193.16366741
_cell_formula_units_Z   16
loop_
 _symmetry_equiv_pos_site_id
 _symmetry_equiv_pos_as_xyz
  1  'x, y, z'
loop_
 _atom_site_type_symbol
 _atom_site_label
 _atom_site_symmetry_multiplicity
 _atom_site_fract_x
 _atom_site_fract_y
 _atom_site_fract_z
 _atom_site_occupancy
  Mo  Mo0  1  -0.04794940  7.35115000  0.08364270  1
  Mo  Mo1  1  1.78966000  1.80931000  -0.10330000  1
  Mo  Mo2  1  1.88954000  0.00876242  1.84192000  1
  Mo  Mo3  1  7.26759000  1.81489000  1.80605000  1
  Mo  Mo4  1  3.63379000  0.00137812  3.73433000  1
  Mo  Mo5  1  5.38780000  1.72025000  0.05252650  1
  Mo  Mo6  1  5.50532000  -0.02964420  1.86742000  1
  Mo  Mo7  1  3.62377000  1.89845000  1.80046000  1
  Mo  Mo8  1  -0.04995210  3.76471000  3.53422000  1
  Mo  Mo9  1  1.81782000  5.51223000  0.04457750  1
  Mo  Mo10  1  1.76959000  3.66241000  1.72950000  1
  Mo  Mo11  1  7.32656000  5.39565000  1.76757000  1
  Mo  Mo12  1  3.55567000  3.60992000  3.64976000  1
  Mo  Mo13  1  5.44452000  5.46814000  3.72148000  1
  Mo  Mo14  1  5.60641000  3.56460000  1.80509000  1
  Mo  Mo15  1  3.70386000  5.38865000  1.77675000  1
