# generated using pymatgen
data_Mo
_symmetry_space_group_name_H-M   'P 1'
_cell_length_a   7.28313708
_cell_length_b   7.28313708
_cell_length_c   3.64156842
_cell_angle_alpha   90.00000000
_cell_angle_beta   90.00000000
_cell_angle_gamma   90.00000000
_symmetry_Int_Tables_number   1
_chemical_formula_structural   Mo
_chemical_formula_sum   Mo16
_cell_volume   193.16366741
_cell_formula_units_Z   16
loop_
 _symmetry_equiv_pos_site_id
 _symmetry_equiv_pos_as_xyz
  1  'x, y, z'
loop_
 _atom_site_type_symbol
 _atom_site_label
 _atom_site_symmetry_multiplicity
 _atom_site_fract_x
 _atom_site_fract_y
 _atom_site_fract_z
 _atom_site_occupancy
  Mo  Mo0  1  0.00172464  7.29570000  -0.00337977  1
  Mo  Mo1  1  1.74301000  1.73695000  0.05156480  1
  Mo  Mo2  1  1.85366000  -0.03351340  1.78100000  1
  Mo  Mo3  1  7.31793000  1.84740000  1.97167000  1
  Mo  Mo4  1  3.66603000  0.02085460  3.64448000  1
  Mo  Mo5  1  5.40984000  1.77742000  0.05757600  1
  Mo  Mo6  1  5.48084000  0.02429210  1.85958000  1
  Mo  Mo7  1  3.67871000  1.81520000  1.81405000  1
  Mo  Mo8  1  -0.02145200  3.69167000  3.60761000  1
  Mo  Mo9  1  1.78450000  5.50020000  -0.07880550  1
  Mo  Mo10  1  1.78206000  3.65044000  1.78675000  1
  Mo  Mo11  1  7.30187000  5.50401000  1.82213000  1
  Mo  Mo12  1  3.51100000  3.65853000  3.60772000  1
  Mo  Mo13  1  5.41510000  5.46311000  3.60395000  1
  Mo  Mo14  1  5.60023000  3.68805000  1.81038000  1
  Mo  Mo15  1  3.69895000  5.30054000  1.77572000  1
