# generated using pymatgen
data_Mo
_symmetry_space_group_name_H-M   'P 1'
_cell_length_a   7.28313708
_cell_length_b   7.28313708
_cell_length_c   3.64156842
_cell_angle_alpha   90.00000000
_cell_angle_beta   90.00000000
_cell_angle_gamma   90.00000000
_symmetry_Int_Tables_number   1
_chemical_formula_structural   Mo
_chemical_formula_sum   Mo16
_cell_volume   193.16366741
_cell_formula_units_Z   16
loop_
 _symmetry_equiv_pos_site_id
 _symmetry_equiv_pos_as_xyz
  1  'x, y, z'
loop_
 _atom_site_type_symbol
 _atom_site_label
 _atom_site_symmetry_multiplicity
 _atom_site_fract_x
 _atom_site_fract_y
 _atom_site_fract_z
 _atom_site_occupancy
  Mo  Mo0  1  -0.05159220  7.30859000  -0.00691156  1
  Mo  Mo1  1  1.85005000  1.87265000  -0.03725310  1
  Mo  Mo2  1  1.84906000  -0.01350990  1.82164000  1
  Mo  Mo3  1  7.29018000  1.71401000  1.74946000  1
  Mo  Mo4  1  3.61424000  -0.03632950  3.60001000  1
  Mo  Mo5  1  5.47531000  1.85457000  -0.03175880  1
  Mo  Mo6  1  5.46611000  -0.01362440  1.85238000  1
  Mo  Mo7  1  3.62177000  1.96934000  1.76398000  1
  Mo  Mo8  1  0.02986540  3.63714000  3.58746000  1
  Mo  Mo9  1  1.64859000  5.44095000  0.08320600  1
  Mo  Mo10  1  1.88387000  3.67258000  1.82457000  1
  Mo  Mo11  1  7.27226000  5.40779000  1.84805000  1
  Mo  Mo12  1  3.65299000  3.68905000  3.66578000  1
  Mo  Mo13  1  5.46655000  5.38668000  3.70643000  1
  Mo  Mo14  1  5.47056000  3.59714000  1.83967000  1
  Mo  Mo15  1  3.68417000  5.45384000  1.84531000  1
