# generated using pymatgen
data_Mo
_symmetry_space_group_name_H-M   'P 1'
_cell_length_a   7.28313708
_cell_length_b   7.28313708
_cell_length_c   3.64156842
_cell_angle_alpha   90.00000000
_cell_angle_beta   90.00000000
_cell_angle_gamma   90.00000000
_symmetry_Int_Tables_number   1
_chemical_formula_structural   Mo
_chemical_formula_sum   Mo16
_cell_volume   193.16366741
_cell_formula_units_Z   16
loop_
 _symmetry_equiv_pos_site_id
 _symmetry_equiv_pos_as_xyz
  1  'x, y, z'
loop_
 _atom_site_type_symbol
 _atom_site_label
 _atom_site_symmetry_multiplicity
 _atom_site_fract_x
 _atom_site_fract_y
 _atom_site_fract_z
 _atom_site_occupancy
  Mo  Mo0  1  -0.02611860  7.28863000  0.03658870  1
  Mo  Mo1  1  1.85852000  1.82472000  -0.05465160  1
  Mo  Mo2  1  1.84243000  -0.01762980  1.86078000  1
  Mo  Mo3  1  7.25246000  1.76513000  1.78039000  1
  Mo  Mo4  1  3.67034000  -0.05620930  3.61806000  1
  Mo  Mo5  1  5.32484000  1.78295000  -0.01173730  1
  Mo  Mo6  1  5.46925000  0.03418990  1.85761000  1
  Mo  Mo7  1  3.61643000  1.76932000  1.83551000  1
  Mo  Mo8  1  0.02100330  3.71038000  3.64684000  1
  Mo  Mo9  1  1.88061000  5.52061000  -0.01125700  1
  Mo  Mo10  1  1.90600000  3.62473000  1.78925000  1
  Mo  Mo11  1  7.20079000  5.46992000  1.67278000  1
  Mo  Mo12  1  3.69790000  3.67043000  3.64714000  1
  Mo  Mo13  1  5.46328000  5.47736000  3.72604000  1
  Mo  Mo14  1  5.44776000  3.54041000  1.84981000  1
  Mo  Mo15  1  3.59851000  5.53593000  1.86885000  1
