# generated using pymatgen
data_Mo
_symmetry_space_group_name_H-M   'P 1'
_cell_length_a   7.28313708
_cell_length_b   7.28313708
_cell_length_c   3.64156842
_cell_angle_alpha   90.00000000
_cell_angle_beta   90.00000000
_cell_angle_gamma   90.00000000
_symmetry_Int_Tables_number   1
_chemical_formula_structural   Mo
_chemical_formula_sum   Mo16
_cell_volume   193.16366741
_cell_formula_units_Z   16
loop_
 _symmetry_equiv_pos_site_id
 _symmetry_equiv_pos_as_xyz
  1  'x, y, z'
loop_
 _atom_site_type_symbol
 _atom_site_label
 _atom_site_symmetry_multiplicity
 _atom_site_fract_x
 _atom_site_fract_y
 _atom_site_fract_z
 _atom_site_occupancy
  Mo  Mo0  1  -0.03855520  7.28673000  -0.04721670  1
  Mo  Mo1  1  1.80538000  1.81890000  0.00205513  1
  Mo  Mo2  1  1.86286000  -0.06103940  1.82202000  1
  Mo  Mo3  1  7.26950000  1.93242000  1.85516000  1
  Mo  Mo4  1  3.64550000  -0.00405870  3.60471000  1
  Mo  Mo5  1  5.42220000  1.87912000  -0.00817467  1
  Mo  Mo6  1  5.49833000  0.00157574  1.80876000  1
  Mo  Mo7  1  3.66546000  1.84981000  1.80909000  1
  Mo  Mo8  1  -0.05264900  3.65283000  3.64423000  1
  Mo  Mo9  1  1.77511000  5.44987000  0.00062095  1
  Mo  Mo10  1  1.90207000  3.62819000  1.81269000  1
  Mo  Mo11  1  7.28191000  5.43701000  1.95836000  1
  Mo  Mo12  1  3.53324000  3.64025000  3.60301000  1
  Mo  Mo13  1  5.42459000  5.41508000  3.61351000  1
  Mo  Mo14  1  5.51310000  3.67503000  1.85357000  1
  Mo  Mo15  1  3.71595000  5.33914000  1.77959000  1
