# generated using pymatgen
data_Mo
_symmetry_space_group_name_H-M   'P 1'
_cell_length_a   7.27806742
_cell_length_b   7.27806742
_cell_length_c   3.63903379
_cell_angle_alpha   90.00000000
_cell_angle_beta   90.00000000
_cell_angle_gamma   90.00000000
_symmetry_Int_Tables_number   1
_chemical_formula_structural   Mo
_chemical_formula_sum   Mo16
_cell_volume   192.76058556
_cell_formula_units_Z   16
loop_
 _symmetry_equiv_pos_site_id
 _symmetry_equiv_pos_as_xyz
  1  'x, y, z'
loop_
 _atom_site_type_symbol
 _atom_site_label
 _atom_site_symmetry_multiplicity
 _atom_site_fract_x
 _atom_site_fract_y
 _atom_site_fract_z
 _atom_site_occupancy
  Mo  Mo0  1  0.00494472  7.25698000  3.65228000  1
  Mo  Mo1  1  1.82374000  1.82762000  -0.02999300  1
  Mo  Mo2  1  1.82477000  7.31264000  1.80612000  1
  Mo  Mo3  1  7.28764000  1.80879000  1.81717000  1
  Mo  Mo4  1  3.63935000  7.25738000  0.00459636  1
  Mo  Mo5  1  5.44965000  1.82842000  -0.00876729  1
  Mo  Mo6  1  5.45945000  0.00108070  1.80584000  1
  Mo  Mo7  1  3.62307000  1.82193000  1.83264000  1
  Mo  Mo8  1  7.27788000  3.64633000  3.65488000  1
  Mo  Mo9  1  1.80013000  5.43594000  3.63602000  1
  Mo  Mo10  1  1.82373000  3.62232000  1.87312000  1
  Mo  Mo11  1  -0.00562211  5.46168000  1.81608000  1
  Mo  Mo12  1  3.63664000  3.63700000  3.61790000  1
  Mo  Mo13  1  5.45009000  5.48071000  3.64430000  1
  Mo  Mo14  1  5.47619000  3.62585000  1.81394000  1
  Mo  Mo15  1  3.65235000  5.47738000  1.81489000  1
