# generated using pymatgen
data_Mo
_symmetry_space_group_name_H-M   'P 1'
_cell_length_a   7.28313708
_cell_length_b   7.28313708
_cell_length_c   3.64156842
_cell_angle_alpha   90.00000000
_cell_angle_beta   90.00000000
_cell_angle_gamma   90.00000000
_symmetry_Int_Tables_number   1
_chemical_formula_structural   Mo
_chemical_formula_sum   Mo16
_cell_volume   193.16366741
_cell_formula_units_Z   16
loop_
 _symmetry_equiv_pos_site_id
 _symmetry_equiv_pos_as_xyz
  1  'x, y, z'
loop_
 _atom_site_type_symbol
 _atom_site_label
 _atom_site_symmetry_multiplicity
 _atom_site_fract_x
 _atom_site_fract_y
 _atom_site_fract_z
 _atom_site_occupancy
  Mo  Mo0  1  0.04792840  7.22621000  -0.02084650  1
  Mo  Mo1  1  1.77127000  1.85894000  0.07638860  1
  Mo  Mo2  1  1.84219000  -0.01214870  1.88615000  1
  Mo  Mo3  1  7.29050000  1.76185000  1.84599000  1
  Mo  Mo4  1  3.59031000  -0.03488020  3.67115000  1
  Mo  Mo5  1  5.55313000  1.91223000  -0.03873730  1
  Mo  Mo6  1  5.51859000  0.01796600  1.80894000  1
  Mo  Mo7  1  3.62845000  1.83254000  1.80865000  1
  Mo  Mo8  1  0.07728350  3.62256000  3.54468000  1
  Mo  Mo9  1  1.70981000  5.43434000  -0.03642620  1
  Mo  Mo10  1  1.80000000  3.61430000  1.81125000  1
  Mo  Mo11  1  7.24099000  5.52987000  1.94342000  1
  Mo  Mo12  1  3.65544000  3.60105000  3.54864000  1
  Mo  Mo13  1  5.42767000  5.48274000  3.62954000  1
  Mo  Mo14  1  5.54175000  3.67888000  1.75778000  1
  Mo  Mo15  1  3.52867000  5.41439000  1.87543000  1
