# generated using pymatgen
data_Mo
_symmetry_space_group_name_H-M   'P 1'
_cell_length_a   7.28313708
_cell_length_b   7.28313708
_cell_length_c   3.64156842
_cell_angle_alpha   90.00000000
_cell_angle_beta   90.00000000
_cell_angle_gamma   90.00000000
_symmetry_Int_Tables_number   1
_chemical_formula_structural   Mo
_chemical_formula_sum   Mo16
_cell_volume   193.16366741
_cell_formula_units_Z   16
loop_
 _symmetry_equiv_pos_site_id
 _symmetry_equiv_pos_as_xyz
  1  'x, y, z'
loop_
 _atom_site_type_symbol
 _atom_site_label
 _atom_site_symmetry_multiplicity
 _atom_site_fract_x
 _atom_site_fract_y
 _atom_site_fract_z
 _atom_site_occupancy
  Mo  Mo0  1  -0.04842100  7.29688000  -0.01314670  1
  Mo  Mo1  1  1.84443000  1.77820000  -0.01699270  1
  Mo  Mo2  1  1.87664000  0.04892400  1.87738000  1
  Mo  Mo3  1  7.28363000  1.74873000  1.69781000  1
  Mo  Mo4  1  3.72714000  -0.04837260  3.61976000  1
  Mo  Mo5  1  5.58497000  1.86515000  -0.03104940  1
  Mo  Mo6  1  5.39048000  0.04155660  1.80116000  1
  Mo  Mo7  1  3.53954000  1.92964000  1.81953000  1
  Mo  Mo8  1  0.07968830  3.72003000  3.67503000  1
  Mo  Mo9  1  1.80277000  5.41357000  0.03046080  1
  Mo  Mo10  1  1.78680000  3.65523000  1.87221000  1
  Mo  Mo11  1  7.30884000  5.43852000  1.84917000  1
  Mo  Mo12  1  3.68020000  3.60390000  3.63432000  1
  Mo  Mo13  1  5.45677000  5.39830000  3.62832000  1
  Mo  Mo14  1  5.32221000  3.65262000  1.82585000  1
  Mo  Mo15  1  3.58832000  5.39798000  1.84218000  1
