# generated using pymatgen
data_Mo
_symmetry_space_group_name_H-M   'P 1'
_cell_length_a   7.28313708
_cell_length_b   7.28313708
_cell_length_c   3.64156842
_cell_angle_alpha   90.00000000
_cell_angle_beta   90.00000000
_cell_angle_gamma   90.00000000
_symmetry_Int_Tables_number   1
_chemical_formula_structural   Mo
_chemical_formula_sum   Mo16
_cell_volume   193.16366741
_cell_formula_units_Z   16
loop_
 _symmetry_equiv_pos_site_id
 _symmetry_equiv_pos_as_xyz
  1  'x, y, z'
loop_
 _atom_site_type_symbol
 _atom_site_label
 _atom_site_symmetry_multiplicity
 _atom_site_fract_x
 _atom_site_fract_y
 _atom_site_fract_z
 _atom_site_occupancy
  Mo  Mo0  1  0.02751140  7.27650000  0.01562570  1
  Mo  Mo1  1  1.85169000  1.79918000  0.08045700  1
  Mo  Mo2  1  1.82984000  -0.01309870  1.81345000  1
  Mo  Mo3  1  7.29158000  1.78640000  1.80078000  1
  Mo  Mo4  1  3.63129000  0.02120400  3.65274000  1
  Mo  Mo5  1  5.40993000  1.84339000  0.03246040  1
  Mo  Mo6  1  5.34594000  0.01884340  1.71879000  1
  Mo  Mo7  1  3.64802000  1.76364000  1.81884000  1
  Mo  Mo8  1  -0.02012430  3.58092000  3.68868000  1
  Mo  Mo9  1  1.82145000  5.40355000  0.00844831  1
  Mo  Mo10  1  1.82038000  3.62908000  1.81610000  1
  Mo  Mo11  1  7.26504000  5.62039000  1.84660000  1
  Mo  Mo12  1  3.62892000  3.71090000  3.63456000  1
  Mo  Mo13  1  5.50776000  5.42937000  3.57166000  1
  Mo  Mo14  1  5.50904000  3.67394000  1.80014000  1
  Mo  Mo15  1  3.65573000  5.39665000  1.81267000  1
