# generated using pymatgen
data_Mo
_symmetry_space_group_name_H-M   'P 1'
_cell_length_a   7.28313708
_cell_length_b   7.28313708
_cell_length_c   3.64156842
_cell_angle_alpha   90.00000000
_cell_angle_beta   90.00000000
_cell_angle_gamma   90.00000000
_symmetry_Int_Tables_number   1
_chemical_formula_structural   Mo
_chemical_formula_sum   Mo16
_cell_volume   193.16366741
_cell_formula_units_Z   16
loop_
 _symmetry_equiv_pos_site_id
 _symmetry_equiv_pos_as_xyz
  1  'x, y, z'
loop_
 _atom_site_type_symbol
 _atom_site_label
 _atom_site_symmetry_multiplicity
 _atom_site_fract_x
 _atom_site_fract_y
 _atom_site_fract_z
 _atom_site_occupancy
  Mo  Mo0  1  -0.01719230  7.31542000  0.04255160  1
  Mo  Mo1  1  1.79744000  1.78238000  -0.00939484  1
  Mo  Mo2  1  1.68893000  -0.00604313  1.84374000  1
  Mo  Mo3  1  7.38245000  1.78805000  1.75270000  1
  Mo  Mo4  1  3.60235000  0.04573660  3.72414000  1
  Mo  Mo5  1  5.54533000  1.78334000  -0.05262860  1
  Mo  Mo6  1  5.44058000  -0.05558290  1.89678000  1
  Mo  Mo7  1  3.68593000  1.91019000  1.87452000  1
  Mo  Mo8  1  0.01310820  3.70702000  3.67841000  1
  Mo  Mo9  1  1.80034000  5.46805000  0.01557890  1
  Mo  Mo10  1  1.76421000  3.62527000  1.81138000  1
  Mo  Mo11  1  7.34141000  5.45623000  1.71044000  1
  Mo  Mo12  1  3.61685000  3.66167000  3.66153000  1
  Mo  Mo13  1  5.46644000  5.39118000  3.65007000  1
  Mo  Mo14  1  5.47481000  3.68427000  1.75895000  1
  Mo  Mo15  1  3.62101000  5.38368000  1.75323000  1
