# generated using pymatgen
data_Mo
_symmetry_space_group_name_H-M   'P 1'
_cell_length_a   7.28313708
_cell_length_b   7.28313708
_cell_length_c   3.64156842
_cell_angle_alpha   90.00000000
_cell_angle_beta   90.00000000
_cell_angle_gamma   90.00000000
_symmetry_Int_Tables_number   1
_chemical_formula_structural   Mo
_chemical_formula_sum   Mo16
_cell_volume   193.16366741
_cell_formula_units_Z   16
loop_
 _symmetry_equiv_pos_site_id
 _symmetry_equiv_pos_as_xyz
  1  'x, y, z'
loop_
 _atom_site_type_symbol
 _atom_site_label
 _atom_site_symmetry_multiplicity
 _atom_site_fract_x
 _atom_site_fract_y
 _atom_site_fract_z
 _atom_site_occupancy
  Mo  Mo0  1  -0.01609170  7.15637000  -0.00022383  1
  Mo  Mo1  1  1.88461000  1.83275000  0.03540910  1
  Mo  Mo2  1  1.84708000  -0.04566260  1.75681000  1
  Mo  Mo3  1  7.25480000  1.81619000  1.76095000  1
  Mo  Mo4  1  3.68555000  0.02687640  3.56458000  1
  Mo  Mo5  1  5.53573000  1.94024000  0.03153090  1
  Mo  Mo6  1  5.33404000  0.02771410  1.75807000  1
  Mo  Mo7  1  3.64551000  1.84777000  1.80350000  1
  Mo  Mo8  1  -0.00789414  3.53433000  3.70639000  1
  Mo  Mo9  1  1.87971000  5.39871000  0.04559120  1
  Mo  Mo10  1  1.84545000  3.63969000  1.85246000  1
  Mo  Mo11  1  7.19144000  5.57647000  1.86628000  1
  Mo  Mo12  1  3.68373000  3.63309000  3.67667000  1
  Mo  Mo13  1  5.45669000  5.47501000  3.60706000  1
  Mo  Mo14  1  5.35867000  3.66696000  1.82889000  1
  Mo  Mo15  1  3.64498000  5.41437000  1.81804000  1
