# generated using pymatgen
data_Mo
_symmetry_space_group_name_H-M   'P 1'
_cell_length_a   7.28313708
_cell_length_b   7.28313708
_cell_length_c   3.64156842
_cell_angle_alpha   90.00000000
_cell_angle_beta   90.00000000
_cell_angle_gamma   90.00000000
_symmetry_Int_Tables_number   1
_chemical_formula_structural   Mo
_chemical_formula_sum   Mo16
_cell_volume   193.16366741
_cell_formula_units_Z   16
loop_
 _symmetry_equiv_pos_site_id
 _symmetry_equiv_pos_as_xyz
  1  'x, y, z'
loop_
 _atom_site_type_symbol
 _atom_site_label
 _atom_site_symmetry_multiplicity
 _atom_site_fract_x
 _atom_site_fract_y
 _atom_site_fract_z
 _atom_site_occupancy
  Mo  Mo0  1  -0.09827920  7.36614000  -0.00418487  1
  Mo  Mo1  1  1.83923000  1.87936000  0.07277180  1
  Mo  Mo2  1  1.85086000  -0.01154790  1.92072000  1
  Mo  Mo3  1  7.22179000  1.79929000  1.83024000  1
  Mo  Mo4  1  3.60619000  -0.04125790  3.65656000  1
  Mo  Mo5  1  5.50228000  1.90684000  -0.06906350  1
  Mo  Mo6  1  5.41692000  -0.05176880  1.76187000  1
  Mo  Mo7  1  3.74144000  1.89575000  1.78132000  1
  Mo  Mo8  1  -0.03847170  3.66082000  3.57281000  1
  Mo  Mo9  1  1.81280000  5.43151000  -0.02104360  1
  Mo  Mo10  1  1.80154000  3.60263000  1.93563000  1
  Mo  Mo11  1  7.26852000  5.42522000  1.76985000  1
  Mo  Mo12  1  3.64770000  3.56150000  3.60342000  1
  Mo  Mo13  1  5.45004000  5.43317000  3.55321000  1
  Mo  Mo14  1  5.41119000  3.64802000  1.85584000  1
  Mo  Mo15  1  3.79023000  5.43519000  1.89205000  1
