# generated using pymatgen
data_Mo
_symmetry_space_group_name_H-M   'P 1'
_cell_length_a   7.28313708
_cell_length_b   7.28313708
_cell_length_c   3.64156842
_cell_angle_alpha   90.00000000
_cell_angle_beta   90.00000000
_cell_angle_gamma   90.00000000
_symmetry_Int_Tables_number   1
_chemical_formula_structural   Mo
_chemical_formula_sum   Mo16
_cell_volume   193.16366741
_cell_formula_units_Z   16
loop_
 _symmetry_equiv_pos_site_id
 _symmetry_equiv_pos_as_xyz
  1  'x, y, z'
loop_
 _atom_site_type_symbol
 _atom_site_label
 _atom_site_symmetry_multiplicity
 _atom_site_fract_x
 _atom_site_fract_y
 _atom_site_fract_z
 _atom_site_occupancy
  Mo  Mo0  1  0.00249228  7.24457000  -0.03891040  1
  Mo  Mo1  1  1.73865000  1.71462000  0.01486360  1
  Mo  Mo2  1  1.81548000  -0.02884270  1.75093000  1
  Mo  Mo3  1  7.31990000  1.72258000  1.81351000  1
  Mo  Mo4  1  3.62355000  0.09246600  3.71126000  1
  Mo  Mo5  1  5.38283000  1.75254000  0.02132940  1
  Mo  Mo6  1  5.43774000  -0.01500880  1.77181000  1
  Mo  Mo7  1  3.68912000  1.83043000  1.86516000  1
  Mo  Mo8  1  0.01561230  3.59879000  3.58581000  1
  Mo  Mo9  1  1.82700000  5.60586000  0.01299910  1
  Mo  Mo10  1  1.80091000  3.65141000  1.74896000  1
  Mo  Mo11  1  7.31182000  5.54401000  1.82052000  1
  Mo  Mo12  1  3.53251000  3.68585000  3.72878000  1
  Mo  Mo13  1  5.41432000  5.48729000  3.67532000  1
  Mo  Mo14  1  5.64556000  3.64056000  1.83323000  1
  Mo  Mo15  1  3.66653000  5.41375000  1.79642000  1
