# generated using pymatgen
data_Mo
_symmetry_space_group_name_H-M   'P 1'
_cell_length_a   7.28313708
_cell_length_b   7.28313708
_cell_length_c   3.64156842
_cell_angle_alpha   90.00000000
_cell_angle_beta   90.00000000
_cell_angle_gamma   90.00000000
_symmetry_Int_Tables_number   1
_chemical_formula_structural   Mo
_chemical_formula_sum   Mo16
_cell_volume   193.16366741
_cell_formula_units_Z   16
loop_
 _symmetry_equiv_pos_site_id
 _symmetry_equiv_pos_as_xyz
  1  'x, y, z'
loop_
 _atom_site_type_symbol
 _atom_site_label
 _atom_site_symmetry_multiplicity
 _atom_site_fract_x
 _atom_site_fract_y
 _atom_site_fract_z
 _atom_site_occupancy
  Mo  Mo0  1  -0.04101630  7.29904000  -0.06263820  1
  Mo  Mo1  1  1.83077000  1.80698000  0.05711340  1
  Mo  Mo2  1  1.86511000  -0.00167748  1.76726000  1
  Mo  Mo3  1  7.28193000  1.80862000  1.77540000  1
  Mo  Mo4  1  3.66695000  0.01137480  3.67690000  1
  Mo  Mo5  1  5.43620000  1.79723000  0.08899070  1
  Mo  Mo6  1  5.48106000  -0.01933750  1.78352000  1
  Mo  Mo7  1  3.62549000  1.72777000  1.80125000  1
  Mo  Mo8  1  -0.01663310  3.58742000  3.65656000  1
  Mo  Mo9  1  1.72219000  5.52209000  -0.01871510  1
  Mo  Mo10  1  1.95062000  3.65147000  1.78487000  1
  Mo  Mo11  1  7.32042000  5.46375000  1.86423000  1
  Mo  Mo12  1  3.54337000  3.63195000  3.67356000  1
  Mo  Mo13  1  5.42104000  5.45206000  3.66135000  1
  Mo  Mo14  1  5.42399000  3.60814000  1.84463000  1
  Mo  Mo15  1  3.71251000  5.59400000  1.75772000  1
