# generated using pymatgen
data_Mo
_symmetry_space_group_name_H-M   'P 1'
_cell_length_a   7.28313708
_cell_length_b   7.28313708
_cell_length_c   3.64156842
_cell_angle_alpha   90.00000000
_cell_angle_beta   90.00000000
_cell_angle_gamma   90.00000000
_symmetry_Int_Tables_number   1
_chemical_formula_structural   Mo
_chemical_formula_sum   Mo16
_cell_volume   193.16366741
_cell_formula_units_Z   16
loop_
 _symmetry_equiv_pos_site_id
 _symmetry_equiv_pos_as_xyz
  1  'x, y, z'
loop_
 _atom_site_type_symbol
 _atom_site_label
 _atom_site_symmetry_multiplicity
 _atom_site_fract_x
 _atom_site_fract_y
 _atom_site_fract_z
 _atom_site_occupancy
  Mo  Mo0  1  -0.01007220  7.24454000  0.01100010  1
  Mo  Mo1  1  1.78661000  1.91747000  0.03074030  1
  Mo  Mo2  1  1.76577000  0.04336850  1.84375000  1
  Mo  Mo3  1  7.28084000  1.79014000  1.78586000  1
  Mo  Mo4  1  3.66876000  0.00208329  3.63272000  1
  Mo  Mo5  1  5.52312000  1.78761000  0.01434580  1
  Mo  Mo6  1  5.37839000  -0.00900228  1.88053000  1
  Mo  Mo7  1  3.59885000  1.75584000  1.88346000  1
  Mo  Mo8  1  0.09526840  3.61735000  3.63157000  1
  Mo  Mo9  1  1.80674000  5.45099000  -0.05667990  1
  Mo  Mo10  1  1.74532000  3.73086000  1.77793000  1
  Mo  Mo11  1  7.26236000  5.62773000  1.87349000  1
  Mo  Mo12  1  3.68379000  3.58501000  3.59232000  1
  Mo  Mo13  1  5.57487000  5.40082000  3.58140000  1
  Mo  Mo14  1  5.45132000  3.59760000  1.78506000  1
  Mo  Mo15  1  3.61204000  5.39846000  1.84450000  1
