# generated using pymatgen
data_Mo
_symmetry_space_group_name_H-M   'P 1'
_cell_length_a   7.28313708
_cell_length_b   7.28313708
_cell_length_c   3.64156842
_cell_angle_alpha   90.00000000
_cell_angle_beta   90.00000000
_cell_angle_gamma   90.00000000
_symmetry_Int_Tables_number   1
_chemical_formula_structural   Mo
_chemical_formula_sum   Mo16
_cell_volume   193.16366741
_cell_formula_units_Z   16
loop_
 _symmetry_equiv_pos_site_id
 _symmetry_equiv_pos_as_xyz
  1  'x, y, z'
loop_
 _atom_site_type_symbol
 _atom_site_label
 _atom_site_symmetry_multiplicity
 _atom_site_fract_x
 _atom_site_fract_y
 _atom_site_fract_z
 _atom_site_occupancy
  Mo  Mo0  1  -0.08284280  7.31448000  -0.03679610  1
  Mo  Mo1  1  1.79826000  1.86180000  -0.07852730  1
  Mo  Mo2  1  1.81451000  -0.00203662  1.79380000  1
  Mo  Mo3  1  7.26482000  1.85378000  1.79376000  1
  Mo  Mo4  1  3.63633000  0.00252679  3.60602000  1
  Mo  Mo5  1  5.46362000  1.76066000  -0.04872800  1
  Mo  Mo6  1  5.35770000  -0.09469100  1.84554000  1
  Mo  Mo7  1  3.68521000  1.81433000  1.85979000  1
  Mo  Mo8  1  -0.00554269  3.71418000  3.68529000  1
  Mo  Mo9  1  1.88639000  5.53441000  -0.02274240  1
  Mo  Mo10  1  1.79084000  3.63657000  1.79587000  1
  Mo  Mo11  1  7.37170000  5.44707000  1.73158000  1
  Mo  Mo12  1  3.62426000  3.60371000  3.74339000  1
  Mo  Mo13  1  5.49113000  5.37246000  3.64544000  1
  Mo  Mo14  1  5.46147000  3.62034000  1.94868000  1
  Mo  Mo15  1  3.66613000  5.50128000  1.84963000  1
