# generated using pymatgen
data_Mo
_symmetry_space_group_name_H-M   'P 1'
_cell_length_a   7.27808089
_cell_length_b   7.27808089
_cell_length_c   3.63904047
_cell_angle_alpha   90.00000000
_cell_angle_beta   90.00000000
_cell_angle_gamma   90.00000000
_symmetry_Int_Tables_number   1
_chemical_formula_structural   Mo
_chemical_formula_sum   Mo16
_cell_volume   192.76165285
_cell_formula_units_Z   16
loop_
 _symmetry_equiv_pos_site_id
 _symmetry_equiv_pos_as_xyz
  1  'x, y, z'
loop_
 _atom_site_type_symbol
 _atom_site_label
 _atom_site_symmetry_multiplicity
 _atom_site_fract_x
 _atom_site_fract_y
 _atom_site_fract_z
 _atom_site_occupancy
  Mo  Mo0  1  -0.00328829  7.27792000  0.00574151  1
  Mo  Mo1  1  1.81321000  1.81064000  0.00480412  1
  Mo  Mo2  1  1.82708000  7.26452000  1.82737000  1
  Mo  Mo3  1  7.27738000  1.82535000  1.83519000  1
  Mo  Mo4  1  3.63407000  7.27208000  3.63773000  1
  Mo  Mo5  1  5.46195000  1.82282000  -0.00091265  1
  Mo  Mo6  1  5.45614000  -0.00161449  1.81219000  1
  Mo  Mo7  1  3.63169000  1.83072000  1.81659000  1
  Mo  Mo8  1  7.28700000  3.65130000  3.63831000  1
  Mo  Mo9  1  1.82456000  5.44825000  3.63837000  1
  Mo  Mo10  1  1.82281000  3.63259000  1.81000000  1
  Mo  Mo11  1  7.28134000  5.46258000  1.81463000  1
  Mo  Mo12  1  3.64789000  3.65003000  -0.01129130  1
  Mo  Mo13  1  5.45483000  5.45673000  3.64787000  1
  Mo  Mo14  1  5.45925000  3.63521000  1.82449000  1
  Mo  Mo15  1  3.62617000  5.46297000  1.81092000  1
