# generated using pymatgen
data_Mo
_symmetry_space_group_name_H-M   'P 1'
_cell_length_a   7.27806742
_cell_length_b   7.27806742
_cell_length_c   3.63903379
_cell_angle_alpha   90.00000000
_cell_angle_beta   90.00000000
_cell_angle_gamma   90.00000000
_symmetry_Int_Tables_number   1
_chemical_formula_structural   Mo
_chemical_formula_sum   Mo16
_cell_volume   192.76058556
_cell_formula_units_Z   16
loop_
 _symmetry_equiv_pos_site_id
 _symmetry_equiv_pos_as_xyz
  1  'x, y, z'
loop_
 _atom_site_type_symbol
 _atom_site_label
 _atom_site_symmetry_multiplicity
 _atom_site_fract_x
 _atom_site_fract_y
 _atom_site_fract_z
 _atom_site_occupancy
  Mo  Mo0  1  -0.01718320  7.28836000  3.63557000  1
  Mo  Mo1  1  1.80544000  1.81693000  -0.00900746  1
  Mo  Mo2  1  1.80968000  7.27519000  1.80294000  1
  Mo  Mo3  1  7.28259000  1.81628000  1.81544000  1
  Mo  Mo4  1  3.63852000  7.26274000  0.01224400  1
  Mo  Mo5  1  5.43597000  1.81850000  0.00553879  1
  Mo  Mo6  1  5.47774000  0.03471380  1.83594000  1
  Mo  Mo7  1  3.63249000  1.80761000  1.80952000  1
  Mo  Mo8  1  7.27023000  3.63563000  3.65844000  1
  Mo  Mo9  1  1.83047000  5.45676000  3.63629000  1
  Mo  Mo10  1  1.81932000  3.64781000  1.82097000  1
  Mo  Mo11  1  0.01994010  5.46634000  1.82326000  1
  Mo  Mo12  1  3.66618000  3.64897000  3.65065000  1
  Mo  Mo13  1  5.44684000  5.44103000  3.63131000  1
  Mo  Mo14  1  5.48463000  3.63452000  1.80795000  1
  Mo  Mo15  1  3.62114000  5.45067000  1.81396000  1
