# generated using pymatgen
data_Mo
_symmetry_space_group_name_H-M   'P 1'
_cell_length_a   7.28313708
_cell_length_b   7.28313708
_cell_length_c   3.64156842
_cell_angle_alpha   90.00000000
_cell_angle_beta   90.00000000
_cell_angle_gamma   90.00000000
_symmetry_Int_Tables_number   1
_chemical_formula_structural   Mo
_chemical_formula_sum   Mo16
_cell_volume   193.16366741
_cell_formula_units_Z   16
loop_
 _symmetry_equiv_pos_site_id
 _symmetry_equiv_pos_as_xyz
  1  'x, y, z'
loop_
 _atom_site_type_symbol
 _atom_site_label
 _atom_site_symmetry_multiplicity
 _atom_site_fract_x
 _atom_site_fract_y
 _atom_site_fract_z
 _atom_site_occupancy
  Mo  Mo0  1  0.20214400  7.24918000  0.02863370  1
  Mo  Mo1  1  1.72786000  1.82418000  -0.11584900  1
  Mo  Mo2  1  1.81885000  -0.03973110  1.83654000  1
  Mo  Mo3  1  7.31114000  1.85314000  1.78728000  1
  Mo  Mo4  1  3.64106000  -0.05616920  3.56927000  1
  Mo  Mo5  1  5.34422000  1.70713000  -0.00191683  1
  Mo  Mo6  1  5.55253000  0.05901680  1.88248000  1
  Mo  Mo7  1  3.55489000  1.83647000  1.90814000  1
  Mo  Mo8  1  0.03649430  3.63079000  3.66868000  1
  Mo  Mo9  1  1.88303000  5.47361000  -0.01478250  1
  Mo  Mo10  1  1.71309000  3.61718000  1.76928000  1
  Mo  Mo11  1  7.22383000  5.42811000  1.84729000  1
  Mo  Mo12  1  3.57668000  3.70121000  3.57810000  1
  Mo  Mo13  1  5.52525000  5.55980000  3.72222000  1
  Mo  Mo14  1  5.49961000  3.58671000  1.82285000  1
  Mo  Mo15  1  3.61334000  5.51025000  1.82379000  1
