# generated using pymatgen
data_Mo
_symmetry_space_group_name_H-M   'P 1'
_cell_length_a   7.28858920
_cell_length_b   7.28858920
_cell_length_c   3.64429450
_cell_angle_alpha   90.00000000
_cell_angle_beta   90.00000000
_cell_angle_gamma   90.00000000
_symmetry_Int_Tables_number   1
_chemical_formula_structural   Mo
_chemical_formula_sum   Mo16
_cell_volume   193.59779752
_cell_formula_units_Z   16
loop_
 _symmetry_equiv_pos_site_id
 _symmetry_equiv_pos_as_xyz
  1  'x, y, z'
loop_
 _atom_site_type_symbol
 _atom_site_label
 _atom_site_symmetry_multiplicity
 _atom_site_fract_x
 _atom_site_fract_y
 _atom_site_fract_z
 _atom_site_occupancy
  Mo  Mo0  1  0.01962030  0.02586780  3.70896000  1
  Mo  Mo1  1  1.88126000  1.77787000  0.03329560  1
  Mo  Mo2  1  1.82292000  7.26994000  1.82508000  1
  Mo  Mo3  1  7.17275000  1.74409000  1.88289000  1
  Mo  Mo4  1  3.58589000  -0.00927317  -0.04259390  1
  Mo  Mo5  1  5.47343000  1.74355000  3.63609000  1
  Mo  Mo6  1  5.34811000  7.39803000  1.81962000  1
  Mo  Mo7  1  3.61152000  1.95505000  1.76044000  1
  Mo  Mo8  1  -0.02915230  3.57073000  3.72813000  1
  Mo  Mo9  1  1.80515000  5.41868000  -0.00105510  1
  Mo  Mo10  1  1.67908000  3.60427000  1.86113000  1
  Mo  Mo11  1  7.33911000  5.51115000  1.76399000  1
  Mo  Mo12  1  3.73101000  3.59943000  -0.12489300  1
  Mo  Mo13  1  5.53450000  5.53365000  3.70121000  1
  Mo  Mo14  1  5.55606000  3.58030000  1.77167000  1
  Mo  Mo15  1  3.69275000  5.50065000  1.78803000  1
