# generated using pymatgen
data_Mo
_symmetry_space_group_name_H-M   'P 1'
_cell_length_a   7.28858920
_cell_length_b   7.28858920
_cell_length_c   3.64429450
_cell_angle_alpha   90.00000000
_cell_angle_beta   90.00000000
_cell_angle_gamma   90.00000000
_symmetry_Int_Tables_number   1
_chemical_formula_structural   Mo
_chemical_formula_sum   Mo16
_cell_volume   193.59779752
_cell_formula_units_Z   16
loop_
 _symmetry_equiv_pos_site_id
 _symmetry_equiv_pos_as_xyz
  1  'x, y, z'
loop_
 _atom_site_type_symbol
 _atom_site_label
 _atom_site_symmetry_multiplicity
 _atom_site_fract_x
 _atom_site_fract_y
 _atom_site_fract_z
 _atom_site_occupancy
  Mo  Mo0  1  0.03180880  0.06185210  3.63751000  1
  Mo  Mo1  1  1.87316000  1.86515000  0.02454750  1
  Mo  Mo2  1  1.69909000  7.31541000  1.83475000  1
  Mo  Mo3  1  7.20017000  1.83677000  1.81918000  1
  Mo  Mo4  1  3.59951000  -0.01252750  -0.00406894  1
  Mo  Mo5  1  5.43949000  1.77722000  3.65455000  1
  Mo  Mo6  1  5.45535000  7.32332000  1.82472000  1
  Mo  Mo7  1  3.62302000  1.78792000  1.93975000  1
  Mo  Mo8  1  -0.07138840  3.51535000  3.60309000  1
  Mo  Mo9  1  1.81995000  5.44808000  -0.08705250  1
  Mo  Mo10  1  1.81729000  3.55015000  1.85933000  1
  Mo  Mo11  1  7.40227000  5.45375000  1.87900000  1
  Mo  Mo12  1  3.63993000  3.72051000  -0.01347570  1
  Mo  Mo13  1  5.50421000  5.43245000  3.57136000  1
  Mo  Mo14  1  5.49633000  3.59263000  1.75861000  1
  Mo  Mo15  1  3.69383000  5.55595000  1.81021000  1
