# generated using pymatgen
data_Mo
_symmetry_space_group_name_H-M   'P 1'
_cell_length_a   7.28858920
_cell_length_b   7.28858920
_cell_length_c   3.64429450
_cell_angle_alpha   90.00000000
_cell_angle_beta   90.00000000
_cell_angle_gamma   90.00000000
_symmetry_Int_Tables_number   1
_chemical_formula_structural   Mo
_chemical_formula_sum   Mo16
_cell_volume   193.59779752
_cell_formula_units_Z   16
loop_
 _symmetry_equiv_pos_site_id
 _symmetry_equiv_pos_as_xyz
  1  'x, y, z'
loop_
 _atom_site_type_symbol
 _atom_site_label
 _atom_site_symmetry_multiplicity
 _atom_site_fract_x
 _atom_site_fract_y
 _atom_site_fract_z
 _atom_site_occupancy
  Mo  Mo0  1  0.03793130  -0.08377010  3.63113000  1
  Mo  Mo1  1  1.78008000  1.82000000  0.05110200  1
  Mo  Mo2  1  1.88060000  7.25871000  1.82982000  1
  Mo  Mo3  1  7.24941000  1.81979000  1.86475000  1
  Mo  Mo4  1  3.61138000  -0.00424527  0.06885960  1
  Mo  Mo5  1  5.42104000  1.80426000  3.71987000  1
  Mo  Mo6  1  5.42624000  7.27999000  1.72444000  1
  Mo  Mo7  1  3.67078000  1.77449000  1.80151000  1
  Mo  Mo8  1  -0.06459490  3.74327000  3.68885000  1
  Mo  Mo9  1  1.76393000  5.56284000  -0.08195970  1
  Mo  Mo10  1  1.87271000  3.56149000  1.81191000  1
  Mo  Mo11  1  7.39311000  5.46789000  1.80483000  1
  Mo  Mo12  1  3.60896000  3.71262000  -0.00724119  1
  Mo  Mo13  1  5.38747000  5.49034000  3.62851000  1
  Mo  Mo14  1  5.43427000  3.54745000  1.80302000  1
  Mo  Mo15  1  3.75071000  5.46886000  1.77260000  1
