# generated using pymatgen
data_Mo
_symmetry_space_group_name_H-M   'P 1'
_cell_length_a   7.28858920
_cell_length_b   7.28858920
_cell_length_c   3.64429450
_cell_angle_alpha   90.00000000
_cell_angle_beta   90.00000000
_cell_angle_gamma   90.00000000
_symmetry_Int_Tables_number   1
_chemical_formula_structural   Mo
_chemical_formula_sum   Mo16
_cell_volume   193.59779752
_cell_formula_units_Z   16
loop_
 _symmetry_equiv_pos_site_id
 _symmetry_equiv_pos_as_xyz
  1  'x, y, z'
loop_
 _atom_site_type_symbol
 _atom_site_label
 _atom_site_symmetry_multiplicity
 _atom_site_fract_x
 _atom_site_fract_y
 _atom_site_fract_z
 _atom_site_occupancy
  Mo  Mo0  1  -0.03668940  0.03138200  3.65518000  1
  Mo  Mo1  1  1.79827000  1.83247000  -0.04154000  1
  Mo  Mo2  1  1.77460000  7.31031000  1.75789000  1
  Mo  Mo3  1  7.26853000  1.87899000  1.87902000  1
  Mo  Mo4  1  3.56236000  0.13505700  -0.01243890  1
  Mo  Mo5  1  5.53488000  1.84602000  3.70844000  1
  Mo  Mo6  1  5.48880000  7.28298000  1.87910000  1
  Mo  Mo7  1  3.57824000  1.80607000  1.87858000  1
  Mo  Mo8  1  -0.06889820  3.58631000  3.60071000  1
  Mo  Mo9  1  1.84512000  5.44514000  -0.11400400  1
  Mo  Mo10  1  1.94218000  3.53452000  1.88026000  1
  Mo  Mo11  1  7.32139000  5.39203000  1.87503000  1
  Mo  Mo12  1  3.63125000  3.63499000  0.00149755  1
  Mo  Mo13  1  5.41188000  5.41090000  3.60323000  1
  Mo  Mo14  1  5.47102000  3.63496000  1.77601000  1
  Mo  Mo15  1  3.70105000  5.46187000  1.78503000  1
