# generated using pymatgen
data_Mo
_symmetry_space_group_name_H-M   'P 1'
_cell_length_a   7.28858920
_cell_length_b   7.28858920
_cell_length_c   3.64429450
_cell_angle_alpha   90.00000000
_cell_angle_beta   90.00000000
_cell_angle_gamma   90.00000000
_symmetry_Int_Tables_number   1
_chemical_formula_structural   Mo
_chemical_formula_sum   Mo16
_cell_volume   193.59779752
_cell_formula_units_Z   16
loop_
 _symmetry_equiv_pos_site_id
 _symmetry_equiv_pos_as_xyz
  1  'x, y, z'
loop_
 _atom_site_type_symbol
 _atom_site_label
 _atom_site_symmetry_multiplicity
 _atom_site_fract_x
 _atom_site_fract_y
 _atom_site_fract_z
 _atom_site_occupancy
  Mo  Mo0  1  0.04390140  -0.00080143  3.60645000  1
  Mo  Mo1  1  1.83200000  1.76883000  0.03021000  1
  Mo  Mo2  1  1.83441000  7.23718000  1.89266000  1
  Mo  Mo3  1  7.28927000  1.76407000  1.81130000  1
  Mo  Mo4  1  3.69066000  0.09181930  0.01395690  1
  Mo  Mo5  1  5.57539000  1.79466000  3.64641000  1
  Mo  Mo6  1  5.32204000  7.37991000  1.69528000  1
  Mo  Mo7  1  3.64786000  1.83582000  1.89767000  1
  Mo  Mo8  1  -0.03029150  3.66915000  3.63537000  1
  Mo  Mo9  1  1.84425000  5.41126000  -0.03056630  1
  Mo  Mo10  1  1.69394000  3.65619000  1.80565000  1
  Mo  Mo11  1  7.30951000  5.63846000  1.82057000  1
  Mo  Mo12  1  3.60989000  3.54589000  0.00039923  1
  Mo  Mo13  1  5.41170000  5.38912000  3.63322000  1
  Mo  Mo14  1  5.47645000  3.60376000  1.81679000  1
  Mo  Mo15  1  3.67301000  5.43868000  1.83663000  1
