# generated using pymatgen
data_Mo
_symmetry_space_group_name_H-M   'P 1'
_cell_length_a   7.28858920
_cell_length_b   7.28858920
_cell_length_c   3.64429450
_cell_angle_alpha   90.00000000
_cell_angle_beta   90.00000000
_cell_angle_gamma   90.00000000
_symmetry_Int_Tables_number   1
_chemical_formula_structural   Mo
_chemical_formula_sum   Mo16
_cell_volume   193.59779752
_cell_formula_units_Z   16
loop_
 _symmetry_equiv_pos_site_id
 _symmetry_equiv_pos_as_xyz
  1  'x, y, z'
loop_
 _atom_site_type_symbol
 _atom_site_label
 _atom_site_symmetry_multiplicity
 _atom_site_fract_x
 _atom_site_fract_y
 _atom_site_fract_z
 _atom_site_occupancy
  Mo  Mo0  1  -0.00720065  -0.08822800  3.56273000  1
  Mo  Mo1  1  1.80730000  1.75856000  0.07779760  1
  Mo  Mo2  1  1.88600000  7.33583000  1.73094000  1
  Mo  Mo3  1  7.40077000  1.81519000  1.84773000  1
  Mo  Mo4  1  3.56122000  0.03922330  0.03309580  1
  Mo  Mo5  1  5.49282000  1.86507000  3.65148000  1
  Mo  Mo6  1  5.35994000  7.26883000  1.86979000  1
  Mo  Mo7  1  3.68330000  1.91620000  1.86565000  1
  Mo  Mo8  1  -0.05016190  3.60849000  3.59548000  1
  Mo  Mo9  1  1.90871000  5.46678000  0.00282344  1
  Mo  Mo10  1  1.71707000  3.67503000  1.84523000  1
  Mo  Mo11  1  7.22255000  5.50113000  1.73082000  1
  Mo  Mo12  1  3.55669000  3.61181000  0.01253960  1
  Mo  Mo13  1  5.44453000  5.48283000  3.64960000  1
  Mo  Mo14  1  5.52719000  3.55539000  1.75300000  1
  Mo  Mo15  1  3.71327000  5.41187000  1.88329000  1
