# generated using pymatgen
data_Mo
_symmetry_space_group_name_H-M   'P 1'
_cell_length_a   7.28858920
_cell_length_b   7.28858920
_cell_length_c   3.64429450
_cell_angle_alpha   90.00000000
_cell_angle_beta   90.00000000
_cell_angle_gamma   90.00000000
_symmetry_Int_Tables_number   1
_chemical_formula_structural   Mo
_chemical_formula_sum   Mo16
_cell_volume   193.59779752
_cell_formula_units_Z   16
loop_
 _symmetry_equiv_pos_site_id
 _symmetry_equiv_pos_as_xyz
  1  'x, y, z'
loop_
 _atom_site_type_symbol
 _atom_site_label
 _atom_site_symmetry_multiplicity
 _atom_site_fract_x
 _atom_site_fract_y
 _atom_site_fract_z
 _atom_site_occupancy
  Mo  Mo0  1  0.05725130  0.00944224  3.65533000  1
  Mo  Mo1  1  1.85637000  1.88542000  0.03931870  1
  Mo  Mo2  1  1.99335000  7.19303000  1.87302000  1
  Mo  Mo3  1  7.35749000  1.68954000  1.79328000  1
  Mo  Mo4  1  3.74387000  0.05263200  0.05467490  1
  Mo  Mo5  1  5.53720000  1.81229000  3.62101000  1
  Mo  Mo6  1  5.40015000  7.34090000  1.76079000  1
  Mo  Mo7  1  3.54516000  1.88147000  1.77518000  1
  Mo  Mo8  1  0.00010032  3.66560000  3.67232000  1
  Mo  Mo9  1  1.76779000  5.49016000  -0.01768600  1
  Mo  Mo10  1  1.71041000  3.66796000  1.85880000  1
  Mo  Mo11  1  7.18676000  5.48311000  1.75369000  1
  Mo  Mo12  1  3.67346000  3.61749000  0.01103760  1
  Mo  Mo13  1  5.29738000  5.38917000  3.59910000  1
  Mo  Mo14  1  5.48434000  3.65240000  1.81920000  1
  Mo  Mo15  1  3.61290000  5.39339000  1.84293000  1
