# generated using pymatgen
data_Mo
_symmetry_space_group_name_H-M   'P 1'
_cell_length_a   7.28858920
_cell_length_b   7.28858920
_cell_length_c   3.64429450
_cell_angle_alpha   90.00000000
_cell_angle_beta   90.00000000
_cell_angle_gamma   90.00000000
_symmetry_Int_Tables_number   1
_chemical_formula_structural   Mo
_chemical_formula_sum   Mo16
_cell_volume   193.59779752
_cell_formula_units_Z   16
loop_
 _symmetry_equiv_pos_site_id
 _symmetry_equiv_pos_as_xyz
  1  'x, y, z'
loop_
 _atom_site_type_symbol
 _atom_site_label
 _atom_site_symmetry_multiplicity
 _atom_site_fract_x
 _atom_site_fract_y
 _atom_site_fract_z
 _atom_site_occupancy
  Mo  Mo0  1  -0.01299430  0.01310860  3.61241000  1
  Mo  Mo1  1  1.84833000  1.82079000  -0.00600592  1
  Mo  Mo2  1  1.77490000  7.13442000  1.80875000  1
  Mo  Mo3  1  7.19771000  1.90772000  1.82995000  1
  Mo  Mo4  1  3.63283000  -0.07202470  -0.03917880  1
  Mo  Mo5  1  5.61300000  1.84660000  3.76071000  1
  Mo  Mo6  1  5.39424000  7.27009000  1.80969000  1
  Mo  Mo7  1  3.68711000  1.80273000  1.87883000  1
  Mo  Mo8  1  0.03179730  3.60875000  3.63143000  1
  Mo  Mo9  1  1.78632000  5.48227000  -0.10940300  1
  Mo  Mo10  1  1.86018000  3.64406000  1.85305000  1
  Mo  Mo11  1  7.33182000  5.52131000  1.79932000  1
  Mo  Mo12  1  3.64529000  3.59188000  0.03936640  1
  Mo  Mo13  1  5.44845000  5.38460000  3.65381000  1
  Mo  Mo14  1  5.40117000  3.71920000  1.81035000  1
  Mo  Mo15  1  3.58386000  5.54850000  1.77892000  1
