# generated using pymatgen
data_Mo
_symmetry_space_group_name_H-M   'P 1'
_cell_length_a   7.27806742
_cell_length_b   7.27806742
_cell_length_c   3.63903379
_cell_angle_alpha   90.00000000
_cell_angle_beta   90.00000000
_cell_angle_gamma   90.00000000
_symmetry_Int_Tables_number   1
_chemical_formula_structural   Mo
_chemical_formula_sum   Mo16
_cell_volume   192.76058556
_cell_formula_units_Z   16
loop_
 _symmetry_equiv_pos_site_id
 _symmetry_equiv_pos_as_xyz
  1  'x, y, z'
loop_
 _atom_site_type_symbol
 _atom_site_label
 _atom_site_symmetry_multiplicity
 _atom_site_fract_x
 _atom_site_fract_y
 _atom_site_fract_z
 _atom_site_occupancy
  Mo  Mo0  1  -0.02823150  7.27460000  3.63567000  1
  Mo  Mo1  1  1.83973000  1.81720000  0.01350980  1
  Mo  Mo2  1  1.80559000  7.27631000  1.82166000  1
  Mo  Mo3  1  7.28588000  1.83592000  1.81425000  1
  Mo  Mo4  1  3.63535000  7.27900000  -0.01941580  1
  Mo  Mo5  1  5.43808000  1.81325000  0.01069730  1
  Mo  Mo6  1  5.44316000  0.00531027  1.83348000  1
  Mo  Mo7  1  3.63228000  1.82023000  1.81181000  1
  Mo  Mo8  1  7.27880000  3.63739000  3.63326000  1
  Mo  Mo9  1  1.83878000  5.45273000  3.63311000  1
  Mo  Mo10  1  1.81856000  3.63389000  1.78903000  1
  Mo  Mo11  1  0.00661689  5.46574000  1.81834000  1
  Mo  Mo12  1  3.66341000  3.65083000  3.66769000  1
  Mo  Mo13  1  5.46705000  5.43973000  3.63147000  1
  Mo  Mo14  1  5.46360000  3.64494000  1.83644000  1
  Mo  Mo15  1  3.63533000  5.45499000  1.82002000  1
