# generated using pymatgen
data_Mo
_symmetry_space_group_name_H-M   'P 1'
_cell_length_a   7.28858920
_cell_length_b   7.28858920
_cell_length_c   3.64429450
_cell_angle_alpha   90.00000000
_cell_angle_beta   90.00000000
_cell_angle_gamma   90.00000000
_symmetry_Int_Tables_number   1
_chemical_formula_structural   Mo
_chemical_formula_sum   Mo16
_cell_volume   193.59779752
_cell_formula_units_Z   16
loop_
 _symmetry_equiv_pos_site_id
 _symmetry_equiv_pos_as_xyz
  1  'x, y, z'
loop_
 _atom_site_type_symbol
 _atom_site_label
 _atom_site_symmetry_multiplicity
 _atom_site_fract_x
 _atom_site_fract_y
 _atom_site_fract_z
 _atom_site_occupancy
  Mo  Mo0  1  0.04554850  -0.04479540  3.58771000  1
  Mo  Mo1  1  1.76294000  1.80466000  0.03826130  1
  Mo  Mo2  1  1.80479000  7.26478000  1.90796000  1
  Mo  Mo3  1  7.27370000  1.80319000  1.84477000  1
  Mo  Mo4  1  3.66398000  0.02250930  -0.02318990  1
  Mo  Mo5  1  5.47930000  1.78849000  3.57121000  1
  Mo  Mo6  1  5.54256000  7.18193000  1.80708000  1
  Mo  Mo7  1  3.55122000  1.81689000  1.81828000  1
  Mo  Mo8  1  -0.04010510  3.59860000  3.63298000  1
  Mo  Mo9  1  2.01876000  5.46776000  0.07938740  1
  Mo  Mo10  1  1.75864000  3.80617000  1.80865000  1
  Mo  Mo11  1  7.20659000  5.47004000  1.74215000  1
  Mo  Mo12  1  3.66521000  3.54334000  -0.00683371  1
  Mo  Mo13  1  5.46858000  5.43023000  3.57518000  1
  Mo  Mo14  1  5.40516000  3.73500000  1.85015000  1
  Mo  Mo15  1  3.61714000  5.53520000  1.87825000  1
