# generated using pymatgen
data_Mo
_symmetry_space_group_name_H-M   'P 1'
_cell_length_a   7.28858920
_cell_length_b   7.28858920
_cell_length_c   3.64429450
_cell_angle_alpha   90.00000000
_cell_angle_beta   90.00000000
_cell_angle_gamma   90.00000000
_symmetry_Int_Tables_number   1
_chemical_formula_structural   Mo
_chemical_formula_sum   Mo16
_cell_volume   193.59779752
_cell_formula_units_Z   16
loop_
 _symmetry_equiv_pos_site_id
 _symmetry_equiv_pos_as_xyz
  1  'x, y, z'
loop_
 _atom_site_type_symbol
 _atom_site_label
 _atom_site_symmetry_multiplicity
 _atom_site_fract_x
 _atom_site_fract_y
 _atom_site_fract_z
 _atom_site_occupancy
  Mo  Mo0  1  0.05665060  0.10837300  3.65138000  1
  Mo  Mo1  1  1.71435000  1.78245000  0.11740200  1
  Mo  Mo2  1  1.84968000  7.30526000  1.92688000  1
  Mo  Mo3  1  7.31808000  1.84596000  1.83137000  1
  Mo  Mo4  1  3.61434000  -0.02040030  0.03987300  1
  Mo  Mo5  1  5.42617000  1.84070000  3.67043000  1
  Mo  Mo6  1  5.53438000  7.25833000  1.76673000  1
  Mo  Mo7  1  3.62669000  1.79478000  1.85183000  1
  Mo  Mo8  1  0.00838446  3.57420000  3.62371000  1
  Mo  Mo9  1  1.76489000  5.47131000  0.04199820  1
  Mo  Mo10  1  1.83061000  3.62379000  1.76066000  1
  Mo  Mo11  1  7.21382000  5.39993000  1.69605000  1
  Mo  Mo12  1  3.71766000  3.58932000  -0.03119710  1
  Mo  Mo13  1  5.52361000  5.53250000  3.57915000  1
  Mo  Mo14  1  5.38251000  3.67547000  1.84243000  1
  Mo  Mo15  1  3.64218000  5.44202000  1.74331000  1
