# generated using pymatgen
data_Mo
_symmetry_space_group_name_H-M   'P 1'
_cell_length_a   7.28858920
_cell_length_b   7.28858920
_cell_length_c   3.64429450
_cell_angle_alpha   90.00000000
_cell_angle_beta   90.00000000
_cell_angle_gamma   90.00000000
_symmetry_Int_Tables_number   1
_chemical_formula_structural   Mo
_chemical_formula_sum   Mo16
_cell_volume   193.59779752
_cell_formula_units_Z   16
loop_
 _symmetry_equiv_pos_site_id
 _symmetry_equiv_pos_as_xyz
  1  'x, y, z'
loop_
 _atom_site_type_symbol
 _atom_site_label
 _atom_site_symmetry_multiplicity
 _atom_site_fract_x
 _atom_site_fract_y
 _atom_site_fract_z
 _atom_site_occupancy
  Mo  Mo0  1  -0.01338640  -0.04512580  3.61952000  1
  Mo  Mo1  1  1.66963000  1.85922000  -0.10171300  1
  Mo  Mo2  1  1.89619000  7.17888000  1.82731000  1
  Mo  Mo3  1  7.36961000  1.77795000  1.83121000  1
  Mo  Mo4  1  3.59096000  0.04667850  -0.01810730  1
  Mo  Mo5  1  5.47729000  1.85727000  3.58195000  1
  Mo  Mo6  1  5.41333000  7.21415000  1.87132000  1
  Mo  Mo7  1  3.64779000  1.92259000  1.74297000  1
  Mo  Mo8  1  0.08139660  3.62863000  3.64949000  1
  Mo  Mo9  1  1.85542000  5.50895000  0.02048880  1
  Mo  Mo10  1  1.81841000  3.77938000  1.77106000  1
  Mo  Mo11  1  7.21331000  5.36567000  1.83662000  1
  Mo  Mo12  1  3.70116000  3.57129000  -0.04428570  1
  Mo  Mo13  1  5.36302000  5.51299000  3.70164000  1
  Mo  Mo14  1  5.49603000  3.64411000  1.94921000  1
  Mo  Mo15  1  3.64384000  5.40136000  1.87333000  1
