# generated using pymatgen
data_Mo
_symmetry_space_group_name_H-M   'P 1'
_cell_length_a   7.28858920
_cell_length_b   7.28858920
_cell_length_c   3.64429450
_cell_angle_alpha   90.00000000
_cell_angle_beta   90.00000000
_cell_angle_gamma   90.00000000
_symmetry_Int_Tables_number   1
_chemical_formula_structural   Mo
_chemical_formula_sum   Mo16
_cell_volume   193.59779752
_cell_formula_units_Z   16
loop_
 _symmetry_equiv_pos_site_id
 _symmetry_equiv_pos_as_xyz
  1  'x, y, z'
loop_
 _atom_site_type_symbol
 _atom_site_label
 _atom_site_symmetry_multiplicity
 _atom_site_fract_x
 _atom_site_fract_y
 _atom_site_fract_z
 _atom_site_occupancy
  Mo  Mo0  1  0.08064040  0.03398970  3.71855000  1
  Mo  Mo1  1  1.84038000  1.80230000  -0.06120480  1
  Mo  Mo2  1  1.86148000  7.27738000  1.86777000  1
  Mo  Mo3  1  7.28583000  1.76418000  1.84598000  1
  Mo  Mo4  1  3.71809000  0.00119080  0.01095690  1
  Mo  Mo5  1  5.42160000  1.80047000  3.65520000  1
  Mo  Mo6  1  5.53985000  7.36092000  1.86667000  1
  Mo  Mo7  1  3.48274000  1.86291000  1.73398000  1
  Mo  Mo8  1  -0.02032810  3.63940000  3.65741000  1
  Mo  Mo9  1  1.75311000  5.41460000  -0.04929690  1
  Mo  Mo10  1  1.68838000  3.70212000  1.85453000  1
  Mo  Mo11  1  7.22869000  5.44819000  1.83405000  1
  Mo  Mo12  1  3.68340000  3.64061000  -0.05265400  1
  Mo  Mo13  1  5.46349000  5.44843000  3.63393000  1
  Mo  Mo14  1  5.54889000  3.62636000  1.78757000  1
  Mo  Mo15  1  3.64774000  5.40096000  1.80856000  1
