# generated using pymatgen
data_Mo
_symmetry_space_group_name_H-M   'P 1'
_cell_length_a   7.28858920
_cell_length_b   7.28858920
_cell_length_c   3.64429450
_cell_angle_alpha   90.00000000
_cell_angle_beta   90.00000000
_cell_angle_gamma   90.00000000
_symmetry_Int_Tables_number   1
_chemical_formula_structural   Mo
_chemical_formula_sum   Mo16
_cell_volume   193.59779752
_cell_formula_units_Z   16
loop_
 _symmetry_equiv_pos_site_id
 _symmetry_equiv_pos_as_xyz
  1  'x, y, z'
loop_
 _atom_site_type_symbol
 _atom_site_label
 _atom_site_symmetry_multiplicity
 _atom_site_fract_x
 _atom_site_fract_y
 _atom_site_fract_z
 _atom_site_occupancy
  Mo  Mo0  1  -0.02172720  0.00661685  3.64542000  1
  Mo  Mo1  1  1.90607000  1.77286000  0.01426780  1
  Mo  Mo2  1  1.81824000  7.31685000  1.75667000  1
  Mo  Mo3  1  7.25657000  1.77804000  1.85922000  1
  Mo  Mo4  1  3.62463000  0.01824130  -0.11569000  1
  Mo  Mo5  1  5.41903000  1.77462000  3.66349000  1
  Mo  Mo6  1  5.42054000  7.34235000  1.94832000  1
  Mo  Mo7  1  3.66023000  1.77764000  1.92310000  1
  Mo  Mo8  1  0.01534690  3.58576000  3.65181000  1
  Mo  Mo9  1  1.95044000  5.39761000  -0.06087520  1
  Mo  Mo10  1  1.82482000  3.73139000  1.82478000  1
  Mo  Mo11  1  7.23347000  5.48955000  1.82338000  1
  Mo  Mo12  1  3.70262000  3.54340000  -0.02644720  1
  Mo  Mo13  1  5.47447000  5.46825000  3.62122000  1
  Mo  Mo14  1  5.42066000  3.67789000  1.85241000  1
  Mo  Mo15  1  3.51858000  5.54293000  1.73092000  1
