# generated using pymatgen
data_Mo
_symmetry_space_group_name_H-M   'P 1'
_cell_length_a   7.28858920
_cell_length_b   7.28858920
_cell_length_c   3.64429450
_cell_angle_alpha   90.00000000
_cell_angle_beta   90.00000000
_cell_angle_gamma   90.00000000
_symmetry_Int_Tables_number   1
_chemical_formula_structural   Mo
_chemical_formula_sum   Mo16
_cell_volume   193.59779752
_cell_formula_units_Z   16
loop_
 _symmetry_equiv_pos_site_id
 _symmetry_equiv_pos_as_xyz
  1  'x, y, z'
loop_
 _atom_site_type_symbol
 _atom_site_label
 _atom_site_symmetry_multiplicity
 _atom_site_fract_x
 _atom_site_fract_y
 _atom_site_fract_z
 _atom_site_occupancy
  Mo  Mo0  1  -0.02662290  -0.06694640  3.63806000  1
  Mo  Mo1  1  1.79817000  1.84769000  -0.09636500  1
  Mo  Mo2  1  1.78628000  7.25941000  1.86997000  1
  Mo  Mo3  1  7.29525000  1.91020000  1.84570000  1
  Mo  Mo4  1  3.58200000  0.08702900  0.03749360  1
  Mo  Mo5  1  5.59174000  1.81806000  3.63229000  1
  Mo  Mo6  1  5.50708000  7.40384000  1.77279000  1
  Mo  Mo7  1  3.67239000  1.74763000  1.77967000  1
  Mo  Mo8  1  -0.05259140  3.77169000  3.62983000  1
  Mo  Mo9  1  1.73959000  5.41449000  -0.06970820  1
  Mo  Mo10  1  1.87036000  3.57654000  1.77973000  1
  Mo  Mo11  1  7.30446000  5.38166000  1.89307000  1
  Mo  Mo12  1  3.61585000  3.63005000  -0.04738370  1
  Mo  Mo13  1  5.38578000  5.47503000  3.69639000  1
  Mo  Mo14  1  5.50322000  3.54278000  1.85230000  1
  Mo  Mo15  1  3.65105000  5.42485000  1.89817000  1
