# generated using pymatgen
data_Mo
_symmetry_space_group_name_H-M   'P 1'
_cell_length_a   7.28858920
_cell_length_b   7.28858920
_cell_length_c   3.64429450
_cell_angle_alpha   90.00000000
_cell_angle_beta   90.00000000
_cell_angle_gamma   90.00000000
_symmetry_Int_Tables_number   1
_chemical_formula_structural   Mo
_chemical_formula_sum   Mo16
_cell_volume   193.59779752
_cell_formula_units_Z   16
loop_
 _symmetry_equiv_pos_site_id
 _symmetry_equiv_pos_as_xyz
  1  'x, y, z'
loop_
 _atom_site_type_symbol
 _atom_site_label
 _atom_site_symmetry_multiplicity
 _atom_site_fract_x
 _atom_site_fract_y
 _atom_site_fract_z
 _atom_site_occupancy
  Mo  Mo0  1  -0.00816663  0.01015170  3.61343000  1
  Mo  Mo1  1  1.81714000  1.88100000  -0.01155920  1
  Mo  Mo2  1  1.82991000  7.37205000  1.69138000  1
  Mo  Mo3  1  7.32203000  1.86714000  1.88977000  1
  Mo  Mo4  1  3.64257000  -0.06988440  0.00249663  1
  Mo  Mo5  1  5.37220000  1.81671000  3.72902000  1
  Mo  Mo6  1  5.47649000  7.27038000  1.83391000  1
  Mo  Mo7  1  3.73050000  1.82672000  1.83296000  1
  Mo  Mo8  1  -0.07339950  3.61096000  3.71312000  1
  Mo  Mo9  1  1.78215000  5.44876000  -0.00246802  1
  Mo  Mo10  1  1.86438000  3.47301000  1.80499000  1
  Mo  Mo11  1  7.28119000  5.44971000  1.79020000  1
  Mo  Mo12  1  3.61187000  3.66702000  0.02726580  1
  Mo  Mo13  1  5.50296000  5.58721000  3.56598000  1
  Mo  Mo14  1  5.43684000  3.57404000  1.90546000  1
  Mo  Mo15  1  3.63533000  5.43903000  1.72604000  1
