# generated using pymatgen
data_Mo
_symmetry_space_group_name_H-M   'P 1'
_cell_length_a   7.28858920
_cell_length_b   7.28858920
_cell_length_c   3.64429450
_cell_angle_alpha   90.00000000
_cell_angle_beta   90.00000000
_cell_angle_gamma   90.00000000
_symmetry_Int_Tables_number   1
_chemical_formula_structural   Mo
_chemical_formula_sum   Mo16
_cell_volume   193.59779752
_cell_formula_units_Z   16
loop_
 _symmetry_equiv_pos_site_id
 _symmetry_equiv_pos_as_xyz
  1  'x, y, z'
loop_
 _atom_site_type_symbol
 _atom_site_label
 _atom_site_symmetry_multiplicity
 _atom_site_fract_x
 _atom_site_fract_y
 _atom_site_fract_z
 _atom_site_occupancy
  Mo  Mo0  1  0.01237340  -0.03697090  3.62035000  1
  Mo  Mo1  1  1.80168000  1.75646000  0.06800150  1
  Mo  Mo2  1  1.78980000  7.36436000  1.82913000  1
  Mo  Mo3  1  7.33838000  1.83642000  1.81843000  1
  Mo  Mo4  1  3.68557000  -0.04685030  0.00118849  1
  Mo  Mo5  1  5.39782000  1.83789000  3.59366000  1
  Mo  Mo6  1  5.62671000  7.26383000  1.82401000  1
  Mo  Mo7  1  3.73581000  1.73685000  1.94171000  1
  Mo  Mo8  1  -0.05086180  3.72405000  3.61395000  1
  Mo  Mo9  1  1.82556000  5.46551000  -0.01803620  1
  Mo  Mo10  1  1.84240000  3.70660000  1.74603000  1
  Mo  Mo11  1  7.27668000  5.33724000  1.80197000  1
  Mo  Mo12  1  3.57928000  3.74537000  0.04405040  1
  Mo  Mo13  1  5.39949000  5.49927000  3.57299000  1
  Mo  Mo14  1  5.41024000  3.61186000  1.89912000  1
  Mo  Mo15  1  3.55305000  5.42211000  1.75544000  1
