# generated using pymatgen
data_Mo
_symmetry_space_group_name_H-M   'P 1'
_cell_length_a   7.28858920
_cell_length_b   7.28858920
_cell_length_c   3.64429450
_cell_angle_alpha   90.00000000
_cell_angle_beta   90.00000000
_cell_angle_gamma   90.00000000
_symmetry_Int_Tables_number   1
_chemical_formula_structural   Mo
_chemical_formula_sum   Mo16
_cell_volume   193.59779752
_cell_formula_units_Z   16
loop_
 _symmetry_equiv_pos_site_id
 _symmetry_equiv_pos_as_xyz
  1  'x, y, z'
loop_
 _atom_site_type_symbol
 _atom_site_label
 _atom_site_symmetry_multiplicity
 _atom_site_fract_x
 _atom_site_fract_y
 _atom_site_fract_z
 _atom_site_occupancy
  Mo  Mo0  1  -0.03273600  -0.03712380  3.60410000  1
  Mo  Mo1  1  1.79902000  1.78342000  0.07295960  1
  Mo  Mo2  1  1.71950000  7.30485000  1.84005000  1
  Mo  Mo3  1  7.27184000  1.86625000  1.82375000  1
  Mo  Mo4  1  3.57224000  0.09754000  -0.02660020  1
  Mo  Mo5  1  5.36187000  1.79518000  3.58582000  1
  Mo  Mo6  1  5.44974000  7.21653000  1.79076000  1
  Mo  Mo7  1  3.68063000  1.72916000  1.92334000  1
  Mo  Mo8  1  0.00721557  3.64095000  3.62768000  1
  Mo  Mo9  1  1.99908000  5.43942000  0.05357210  1
  Mo  Mo10  1  1.90209000  3.71394000  1.77581000  1
  Mo  Mo11  1  7.37507000  5.40156000  1.84772000  1
  Mo  Mo12  1  3.52932000  3.63179000  -0.02400330  1
  Mo  Mo13  1  5.47580000  5.45333000  3.59128000  1
  Mo  Mo14  1  5.37389000  3.67879000  1.84361000  1
  Mo  Mo15  1  3.73944000  5.50840000  1.78215000  1
