# generated using pymatgen
data_Mo
_symmetry_space_group_name_H-M   'P 1'
_cell_length_a   7.27806742
_cell_length_b   7.27806742
_cell_length_c   3.63903379
_cell_angle_alpha   90.00000000
_cell_angle_beta   90.00000000
_cell_angle_gamma   90.00000000
_symmetry_Int_Tables_number   1
_chemical_formula_structural   Mo
_chemical_formula_sum   Mo16
_cell_volume   192.76058556
_cell_formula_units_Z   16
loop_
 _symmetry_equiv_pos_site_id
 _symmetry_equiv_pos_as_xyz
  1  'x, y, z'
loop_
 _atom_site_type_symbol
 _atom_site_label
 _atom_site_symmetry_multiplicity
 _atom_site_fract_x
 _atom_site_fract_y
 _atom_site_fract_z
 _atom_site_occupancy
  Mo  Mo0  1  -0.00984214  7.27307000  3.66557000  1
  Mo  Mo1  1  1.80912000  1.82153000  -0.02853400  1
  Mo  Mo2  1  1.83072000  7.30446000  1.81438000  1
  Mo  Mo3  1  7.29873000  1.81543000  1.80238000  1
  Mo  Mo4  1  3.66187000  7.27809000  -0.01282110  1
  Mo  Mo5  1  5.43524000  1.81953000  0.00304378  1
  Mo  Mo6  1  5.48666000  -0.00349626  1.77693000  1
  Mo  Mo7  1  3.63287000  1.80041000  1.82398000  1
  Mo  Mo8  1  7.27086000  3.65531000  3.66498000  1
  Mo  Mo9  1  1.82911000  5.44855000  3.65566000  1
  Mo  Mo10  1  1.80417000  3.63648000  1.84720000  1
  Mo  Mo11  1  -0.00306732  5.45349000  1.83368000  1
  Mo  Mo12  1  3.64071000  3.63854000  3.62665000  1
  Mo  Mo13  1  5.44188000  5.45526000  3.65085000  1
  Mo  Mo14  1  5.47485000  3.63901000  1.80760000  1
  Mo  Mo15  1  3.62014000  5.46642000  1.81948000  1
