# generated using pymatgen
data_Mo
_symmetry_space_group_name_H-M   'P 1'
_cell_length_a   7.28858920
_cell_length_b   7.28858920
_cell_length_c   3.64429450
_cell_angle_alpha   90.00000000
_cell_angle_beta   90.00000000
_cell_angle_gamma   90.00000000
_symmetry_Int_Tables_number   1
_chemical_formula_structural   Mo
_chemical_formula_sum   Mo16
_cell_volume   193.59779752
_cell_formula_units_Z   16
loop_
 _symmetry_equiv_pos_site_id
 _symmetry_equiv_pos_as_xyz
  1  'x, y, z'
loop_
 _atom_site_type_symbol
 _atom_site_label
 _atom_site_symmetry_multiplicity
 _atom_site_fract_x
 _atom_site_fract_y
 _atom_site_fract_z
 _atom_site_occupancy
  Mo  Mo0  1  0.07013150  0.07069350  3.71206000  1
  Mo  Mo1  1  1.92142000  1.83578000  -0.03306100  1
  Mo  Mo2  1  1.77939000  7.18965000  1.72243000  1
  Mo  Mo3  1  7.29294000  1.89453000  1.75799000  1
  Mo  Mo4  1  3.61830000  -0.02777870  0.01154100  1
  Mo  Mo5  1  5.48696000  1.81242000  3.68799000  1
  Mo  Mo6  1  5.43736000  7.09283000  1.77208000  1
  Mo  Mo7  1  3.69434000  1.73340000  1.79377000  1
  Mo  Mo8  1  -0.10346000  3.57506000  3.67471000  1
  Mo  Mo9  1  1.74121000  5.49223000  0.01212720  1
  Mo  Mo10  1  1.87143000  3.65328000  1.86374000  1
  Mo  Mo11  1  7.34129000  5.50154000  1.88986000  1
  Mo  Mo12  1  3.63476000  3.65304000  0.02833120  1
  Mo  Mo13  1  5.38014000  5.46736000  3.69226000  1
  Mo  Mo14  1  5.41349000  3.76721000  1.71677000  1
  Mo  Mo15  1  3.64431000  5.51277000  1.80940000  1
