# generated using pymatgen
data_Mo
_symmetry_space_group_name_H-M   'P 1'
_cell_length_a   7.28858920
_cell_length_b   7.28858920
_cell_length_c   3.64429450
_cell_angle_alpha   90.00000000
_cell_angle_beta   90.00000000
_cell_angle_gamma   90.00000000
_symmetry_Int_Tables_number   1
_chemical_formula_structural   Mo
_chemical_formula_sum   Mo16
_cell_volume   193.59779752
_cell_formula_units_Z   16
loop_
 _symmetry_equiv_pos_site_id
 _symmetry_equiv_pos_as_xyz
  1  'x, y, z'
loop_
 _atom_site_type_symbol
 _atom_site_label
 _atom_site_symmetry_multiplicity
 _atom_site_fract_x
 _atom_site_fract_y
 _atom_site_fract_z
 _atom_site_occupancy
  Mo  Mo0  1  0.03054820  -0.01461260  3.63185000  1
  Mo  Mo1  1  1.74721000  1.86605000  0.08810790  1
  Mo  Mo2  1  1.91791000  7.19732000  1.75956000  1
  Mo  Mo3  1  7.34070000  1.80435000  1.96883000  1
  Mo  Mo4  1  3.63244000  -0.05822770  -0.06642050  1
  Mo  Mo5  1  5.42358000  1.81917000  3.61079000  1
  Mo  Mo6  1  5.40682000  7.30570000  1.86622000  1
  Mo  Mo7  1  3.59920000  1.86543000  1.80049000  1
  Mo  Mo8  1  -0.11488500  3.61450000  3.65822000  1
  Mo  Mo9  1  1.82259000  5.44461000  0.02440120  1
  Mo  Mo10  1  1.69230000  3.63198000  1.85405000  1
  Mo  Mo11  1  7.28159000  5.52843000  1.79815000  1
  Mo  Mo12  1  3.52784000  3.67339000  -0.01589190  1
  Mo  Mo13  1  5.65899000  5.52295000  3.60266000  1
  Mo  Mo14  1  5.45463000  3.59299000  1.72021000  1
  Mo  Mo15  1  3.80253000  5.42998000  1.81078000  1
