# generated using pymatgen
data_Mo
_symmetry_space_group_name_H-M   'P 1'
_cell_length_a   7.28858920
_cell_length_b   7.28858920
_cell_length_c   3.64429450
_cell_angle_alpha   90.00000000
_cell_angle_beta   90.00000000
_cell_angle_gamma   90.00000000
_symmetry_Int_Tables_number   1
_chemical_formula_structural   Mo
_chemical_formula_sum   Mo16
_cell_volume   193.59779752
_cell_formula_units_Z   16
loop_
 _symmetry_equiv_pos_site_id
 _symmetry_equiv_pos_as_xyz
  1  'x, y, z'
loop_
 _atom_site_type_symbol
 _atom_site_label
 _atom_site_symmetry_multiplicity
 _atom_site_fract_x
 _atom_site_fract_y
 _atom_site_fract_z
 _atom_site_occupancy
  Mo  Mo0  1  0.05029090  0.02559830  3.73516000  1
  Mo  Mo1  1  1.89301000  1.80618000  -0.02640360  1
  Mo  Mo2  1  1.83643000  7.38883000  1.91403000  1
  Mo  Mo3  1  7.26215000  1.69235000  1.80181000  1
  Mo  Mo4  1  3.62581000  -0.07685460  -0.07382790  1
  Mo  Mo5  1  5.52254000  1.76752000  3.64587000  1
  Mo  Mo6  1  5.38294000  7.32294000  1.80628000  1
  Mo  Mo7  1  3.59038000  1.90552000  1.86379000  1
  Mo  Mo8  1  -0.01585740  3.65719000  3.58999000  1
  Mo  Mo9  1  1.84103000  5.37918000  0.02137510  1
  Mo  Mo10  1  1.69573000  3.58877000  1.81489000  1
  Mo  Mo11  1  7.31217000  5.54099000  1.84010000  1
  Mo  Mo12  1  3.64696000  3.66116000  -0.04365000  1
  Mo  Mo13  1  5.44230000  5.43141000  3.61105000  1
  Mo  Mo14  1  5.45224000  3.68793000  1.83035000  1
  Mo  Mo15  1  3.68588000  5.44529000  1.78119000  1
