# generated using pymatgen
data_Mo
_symmetry_space_group_name_H-M   'P 1'
_cell_length_a   7.28858920
_cell_length_b   7.28858920
_cell_length_c   3.64429450
_cell_angle_alpha   90.00000000
_cell_angle_beta   90.00000000
_cell_angle_gamma   90.00000000
_symmetry_Int_Tables_number   1
_chemical_formula_structural   Mo
_chemical_formula_sum   Mo16
_cell_volume   193.59779752
_cell_formula_units_Z   16
loop_
 _symmetry_equiv_pos_site_id
 _symmetry_equiv_pos_as_xyz
  1  'x, y, z'
loop_
 _atom_site_type_symbol
 _atom_site_label
 _atom_site_symmetry_multiplicity
 _atom_site_fract_x
 _atom_site_fract_y
 _atom_site_fract_z
 _atom_site_occupancy
  Mo  Mo0  1  -0.04650730  -0.05381420  3.64420000  1
  Mo  Mo1  1  1.72479000  1.78192000  0.02107260  1
  Mo  Mo2  1  1.74403000  7.34801000  1.77542000  1
  Mo  Mo3  1  7.21669000  1.81086000  1.79802000  1
  Mo  Mo4  1  3.55760000  0.07563030  -0.00207088  1
  Mo  Mo5  1  5.48907000  1.83538000  3.70579000  1
  Mo  Mo6  1  5.47605000  7.25838000  1.77704000  1
  Mo  Mo7  1  3.72811000  1.88658000  1.86658000  1
  Mo  Mo8  1  -0.02393750  3.62109000  3.61818000  1
  Mo  Mo9  1  1.95808000  5.43686000  0.03174640  1
  Mo  Mo10  1  1.72591000  3.64075000  1.67013000  1
  Mo  Mo11  1  7.37186000  5.55362000  1.81422000  1
  Mo  Mo12  1  3.54787000  3.54811000  0.03720580  1
  Mo  Mo13  1  5.53208000  5.50373000  3.67390000  1
  Mo  Mo14  1  5.54818000  3.58807000  1.89154000  1
  Mo  Mo15  1  3.67411000  5.38883000  1.78902000  1
