# generated using pymatgen
data_Mo
_symmetry_space_group_name_H-M   'P 1'
_cell_length_a   7.28858920
_cell_length_b   7.28858920
_cell_length_c   3.64429450
_cell_angle_alpha   90.00000000
_cell_angle_beta   90.00000000
_cell_angle_gamma   90.00000000
_symmetry_Int_Tables_number   1
_chemical_formula_structural   Mo
_chemical_formula_sum   Mo16
_cell_volume   193.59779752
_cell_formula_units_Z   16
loop_
 _symmetry_equiv_pos_site_id
 _symmetry_equiv_pos_as_xyz
  1  'x, y, z'
loop_
 _atom_site_type_symbol
 _atom_site_label
 _atom_site_symmetry_multiplicity
 _atom_site_fract_x
 _atom_site_fract_y
 _atom_site_fract_z
 _atom_site_occupancy
  Mo  Mo0  1  -0.04273960  0.01176160  3.61270000  1
  Mo  Mo1  1  1.67479000  1.72734000  0.01556520  1
  Mo  Mo2  1  1.80433000  7.23189000  1.77639000  1
  Mo  Mo3  1  7.31594000  1.87361000  1.94350000  1
  Mo  Mo4  1  3.67534000  0.11753600  0.00007521  1
  Mo  Mo5  1  5.37469000  1.81661000  3.61702000  1
  Mo  Mo6  1  5.48895000  7.18543000  1.81762000  1
  Mo  Mo7  1  3.65362000  1.78545000  1.75819000  1
  Mo  Mo8  1  0.04745630  3.59126000  3.66629000  1
  Mo  Mo9  1  1.88983000  5.51126000  -0.06513080  1
  Mo  Mo10  1  1.93231000  3.63214000  1.84758000  1
  Mo  Mo11  1  7.27049000  5.41601000  1.86306000  1
  Mo  Mo12  1  3.64175000  3.61775000  0.00608920  1
  Mo  Mo13  1  5.41411000  5.54736000  3.64816000  1
  Mo  Mo14  1  5.47368000  3.78210000  1.78804000  1
  Mo  Mo15  1  3.60947000  5.37650000  1.81686000  1
