# generated using pymatgen
data_Mo
_symmetry_space_group_name_H-M   'P 1'
_cell_length_a   7.28858920
_cell_length_b   7.28858920
_cell_length_c   3.64429450
_cell_angle_alpha   90.00000000
_cell_angle_beta   90.00000000
_cell_angle_gamma   90.00000000
_symmetry_Int_Tables_number   1
_chemical_formula_structural   Mo
_chemical_formula_sum   Mo16
_cell_volume   193.59779752
_cell_formula_units_Z   16
loop_
 _symmetry_equiv_pos_site_id
 _symmetry_equiv_pos_as_xyz
  1  'x, y, z'
loop_
 _atom_site_type_symbol
 _atom_site_label
 _atom_site_symmetry_multiplicity
 _atom_site_fract_x
 _atom_site_fract_y
 _atom_site_fract_z
 _atom_site_occupancy
  Mo  Mo0  1  -0.03854010  0.02290630  3.66101000  1
  Mo  Mo1  1  1.69040000  1.71659000  -0.05479900  1
  Mo  Mo2  1  1.79458000  7.25470000  1.91454000  1
  Mo  Mo3  1  7.28722000  1.89379000  1.89759000  1
  Mo  Mo4  1  3.72025000  0.16830300  -0.05228640  1
  Mo  Mo5  1  5.39575000  1.78984000  3.61722000  1
  Mo  Mo6  1  5.56088000  7.26444000  1.75540000  1
  Mo  Mo7  1  3.75125000  1.72392000  1.78867000  1
  Mo  Mo8  1  -0.00679340  3.58553000  3.58987000  1
  Mo  Mo9  1  1.84781000  5.53674000  0.05437410  1
  Mo  Mo10  1  1.86153000  3.67169000  1.79792000  1
  Mo  Mo11  1  7.29078000  5.38525000  1.98151000  1
  Mo  Mo12  1  3.62127000  3.58738000  0.01223120  1
  Mo  Mo13  1  5.41649000  5.50827000  3.58794000  1
  Mo  Mo14  1  5.45627000  3.68152000  1.79638000  1
  Mo  Mo15  1  3.57485000  5.43314000  1.76443000  1
