# generated using pymatgen
data_Mo
_symmetry_space_group_name_H-M   'P 1'
_cell_length_a   7.28858920
_cell_length_b   7.28858920
_cell_length_c   3.64429450
_cell_angle_alpha   90.00000000
_cell_angle_beta   90.00000000
_cell_angle_gamma   90.00000000
_symmetry_Int_Tables_number   1
_chemical_formula_structural   Mo
_chemical_formula_sum   Mo16
_cell_volume   193.59779752
_cell_formula_units_Z   16
loop_
 _symmetry_equiv_pos_site_id
 _symmetry_equiv_pos_as_xyz
  1  'x, y, z'
loop_
 _atom_site_type_symbol
 _atom_site_label
 _atom_site_symmetry_multiplicity
 _atom_site_fract_x
 _atom_site_fract_y
 _atom_site_fract_z
 _atom_site_occupancy
  Mo  Mo0  1  0.03785430  0.00250289  3.66912000  1
  Mo  Mo1  1  1.84038000  1.84281000  -0.03820670  1
  Mo  Mo2  1  1.81985000  7.17698000  1.86900000  1
  Mo  Mo3  1  7.25850000  1.78293000  1.80063000  1
  Mo  Mo4  1  3.66211000  0.01665000  -0.02005780  1
  Mo  Mo5  1  5.53569000  1.85417000  3.65621000  1
  Mo  Mo6  1  5.50687000  7.29482000  1.83724000  1
  Mo  Mo7  1  3.52683000  1.74257000  1.78456000  1
  Mo  Mo8  1  0.00541658  3.67454000  3.67538000  1
  Mo  Mo9  1  1.84709000  5.56210000  -0.04832720  1
  Mo  Mo10  1  1.80924000  3.61511000  1.73259000  1
  Mo  Mo11  1  7.22591000  5.42425000  1.82797000  1
  Mo  Mo12  1  3.64802000  3.59694000  -0.02387980  1
  Mo  Mo13  1  5.37974000  5.39398000  3.65445000  1
  Mo  Mo14  1  5.40186000  3.75149000  1.94031000  1
  Mo  Mo15  1  3.71862000  5.49215000  1.79500000  1
