# generated using pymatgen
data_Mo
_symmetry_space_group_name_H-M   'P 1'
_cell_length_a   7.28858920
_cell_length_b   7.28858920
_cell_length_c   3.64429450
_cell_angle_alpha   90.00000000
_cell_angle_beta   90.00000000
_cell_angle_gamma   90.00000000
_symmetry_Int_Tables_number   1
_chemical_formula_structural   Mo
_chemical_formula_sum   Mo16
_cell_volume   193.59779752
_cell_formula_units_Z   16
loop_
 _symmetry_equiv_pos_site_id
 _symmetry_equiv_pos_as_xyz
  1  'x, y, z'
loop_
 _atom_site_type_symbol
 _atom_site_label
 _atom_site_symmetry_multiplicity
 _atom_site_fract_x
 _atom_site_fract_y
 _atom_site_fract_z
 _atom_site_occupancy
  Mo  Mo0  1  0.01164430  0.00804825  3.65800000  1
  Mo  Mo1  1  1.80956000  1.83251000  -0.00730501  1
  Mo  Mo2  1  1.77396000  7.21706000  1.83439000  1
  Mo  Mo3  1  7.43038000  1.84492000  1.76706000  1
  Mo  Mo4  1  3.54593000  0.01707430  0.01690250  1
  Mo  Mo5  1  5.54556000  1.88043000  3.63665000  1
  Mo  Mo6  1  5.44410000  7.34282000  1.82096000  1
  Mo  Mo7  1  3.72858000  1.85652000  1.84468000  1
  Mo  Mo8  1  -0.05189630  3.59089000  3.62756000  1
  Mo  Mo9  1  1.74804000  5.47198000  0.06656820  1
  Mo  Mo10  1  1.77207000  3.65163000  1.60956000  1
  Mo  Mo11  1  7.22430000  5.49716000  1.91005000  1
  Mo  Mo12  1  3.58846000  3.61179000  -0.03111350  1
  Mo  Mo13  1  5.53096000  5.45496000  3.70713000  1
  Mo  Mo14  1  5.44704000  3.51778000  1.87187000  1
  Mo  Mo15  1  3.67531000  5.42845000  1.77905000  1
