# generated using pymatgen
data_Mo
_symmetry_space_group_name_H-M   'P 1'
_cell_length_a   7.28858920
_cell_length_b   7.28858920
_cell_length_c   3.64429450
_cell_angle_alpha   90.00000000
_cell_angle_beta   90.00000000
_cell_angle_gamma   90.00000000
_symmetry_Int_Tables_number   1
_chemical_formula_structural   Mo
_chemical_formula_sum   Mo16
_cell_volume   193.59779752
_cell_formula_units_Z   16
loop_
 _symmetry_equiv_pos_site_id
 _symmetry_equiv_pos_as_xyz
  1  'x, y, z'
loop_
 _atom_site_type_symbol
 _atom_site_label
 _atom_site_symmetry_multiplicity
 _atom_site_fract_x
 _atom_site_fract_y
 _atom_site_fract_z
 _atom_site_occupancy
  Mo  Mo0  1  -0.00496896  0.02511280  3.63765000  1
  Mo  Mo1  1  1.82364000  1.90000000  0.00152142  1
  Mo  Mo2  1  1.70581000  7.28129000  1.88722000  1
  Mo  Mo3  1  7.15938000  1.87726000  1.72115000  1
  Mo  Mo4  1  3.65585000  0.05758290  0.02377630  1
  Mo  Mo5  1  5.54569000  1.85087000  3.57757000  1
  Mo  Mo6  1  5.54085000  7.23724000  1.84337000  1
  Mo  Mo7  1  3.59426000  1.73859000  1.86378000  1
  Mo  Mo8  1  0.07880840  3.62080000  3.61681000  1
  Mo  Mo9  1  1.80786000  5.59400000  0.05467470  1
  Mo  Mo10  1  1.84658000  3.52142000  1.79182000  1
  Mo  Mo11  1  7.26084000  5.38022000  1.84100000  1
  Mo  Mo12  1  3.68451000  3.53218000  -0.00075810  1
  Mo  Mo13  1  5.43710000  5.37503000  3.63533000  1
  Mo  Mo14  1  5.42939000  3.70754000  1.81735000  1
  Mo  Mo15  1  3.65840000  5.52486000  1.79973000  1
