# generated using pymatgen
data_Mo
_symmetry_space_group_name_H-M   'P 1'
_cell_length_a   7.28858920
_cell_length_b   7.28858920
_cell_length_c   3.64429450
_cell_angle_alpha   90.00000000
_cell_angle_beta   90.00000000
_cell_angle_gamma   90.00000000
_symmetry_Int_Tables_number   1
_chemical_formula_structural   Mo
_chemical_formula_sum   Mo16
_cell_volume   193.59779752
_cell_formula_units_Z   16
loop_
 _symmetry_equiv_pos_site_id
 _symmetry_equiv_pos_as_xyz
  1  'x, y, z'
loop_
 _atom_site_type_symbol
 _atom_site_label
 _atom_site_symmetry_multiplicity
 _atom_site_fract_x
 _atom_site_fract_y
 _atom_site_fract_z
 _atom_site_occupancy
  Mo  Mo0  1  0.04871380  -0.06419750  3.60225000  1
  Mo  Mo1  1  1.76939000  1.89490000  0.03239170  1
  Mo  Mo2  1  1.84584000  7.38292000  1.87276000  1
  Mo  Mo3  1  7.26557000  1.76007000  1.85980000  1
  Mo  Mo4  1  3.72438000  -0.18916400  0.03547490  1
  Mo  Mo5  1  5.43955000  1.81987000  3.63749000  1
  Mo  Mo6  1  5.40880000  7.30872000  1.79553000  1
  Mo  Mo7  1  3.67376000  1.89812000  1.77546000  1
  Mo  Mo8  1  -0.00251942  3.59852000  3.71759000  1
  Mo  Mo9  1  1.78304000  5.35169000  0.02545310  1
  Mo  Mo10  1  1.66730000  3.66684000  1.75555000  1
  Mo  Mo11  1  7.24560000  5.59693000  1.78056000  1
  Mo  Mo12  1  3.67061000  3.76036000  -0.02598740  1
  Mo  Mo13  1  5.60918000  5.40313000  3.64966000  1
  Mo  Mo14  1  5.50863000  3.62101000  1.78781000  1
  Mo  Mo15  1  3.56616000  5.41429000  1.81019000  1
