# generated using pymatgen
data_Mo
_symmetry_space_group_name_H-M   'P 1'
_cell_length_a   7.27806742
_cell_length_b   7.27806742
_cell_length_c   3.63903379
_cell_angle_alpha   90.00000000
_cell_angle_beta   90.00000000
_cell_angle_gamma   90.00000000
_symmetry_Int_Tables_number   1
_chemical_formula_structural   Mo
_chemical_formula_sum   Mo16
_cell_volume   192.76058556
_cell_formula_units_Z   16
loop_
 _symmetry_equiv_pos_site_id
 _symmetry_equiv_pos_as_xyz
  1  'x, y, z'
loop_
 _atom_site_type_symbol
 _atom_site_label
 _atom_site_symmetry_multiplicity
 _atom_site_fract_x
 _atom_site_fract_y
 _atom_site_fract_z
 _atom_site_occupancy
  Mo  Mo0  1  0.00431497  7.26524000  3.62871000  1
  Mo  Mo1  1  1.83630000  1.83076000  0.02100190  1
  Mo  Mo2  1  1.82140000  7.27626000  1.83169000  1
  Mo  Mo3  1  7.26545000  1.82683000  1.81152000  1
  Mo  Mo4  1  3.62709000  7.25891000  0.00920417  1
  Mo  Mo5  1  5.45708000  1.81552000  0.00416179  1
  Mo  Mo6  1  5.45668000  0.03009550  1.86641000  1
  Mo  Mo7  1  3.65830000  1.82055000  1.82937000  1
  Mo  Mo8  1  7.27007000  3.64251000  3.63368000  1
  Mo  Mo9  1  1.83064000  5.46011000  3.63571000  1
  Mo  Mo10  1  1.81270000  3.63053000  1.78187000  1
  Mo  Mo11  1  0.00308145  5.48115000  1.81124000  1
  Mo  Mo12  1  3.64726000  3.66349000  3.63393000  1
  Mo  Mo13  1  5.45769000  5.42343000  3.61491000  1
  Mo  Mo14  1  5.44063000  3.61586000  1.81394000  1
  Mo  Mo15  1  3.63531000  5.46082000  1.82368000  1
