# generated using pymatgen
data_Mo
_symmetry_space_group_name_H-M   'P 1'
_cell_length_a   7.28858920
_cell_length_b   7.28858920
_cell_length_c   3.64429450
_cell_angle_alpha   90.00000000
_cell_angle_beta   90.00000000
_cell_angle_gamma   90.00000000
_symmetry_Int_Tables_number   1
_chemical_formula_structural   Mo
_chemical_formula_sum   Mo16
_cell_volume   193.59779752
_cell_formula_units_Z   16
loop_
 _symmetry_equiv_pos_site_id
 _symmetry_equiv_pos_as_xyz
  1  'x, y, z'
loop_
 _atom_site_type_symbol
 _atom_site_label
 _atom_site_symmetry_multiplicity
 _atom_site_fract_x
 _atom_site_fract_y
 _atom_site_fract_z
 _atom_site_occupancy
  Mo  Mo0  1  0.05066080  -0.05063420  3.68583000  1
  Mo  Mo1  1  1.78393000  1.85395000  -0.04805230  1
  Mo  Mo2  1  1.93442000  7.29566000  1.81600000  1
  Mo  Mo3  1  7.25657000  1.77533000  1.76713000  1
  Mo  Mo4  1  3.62926000  -0.07112930  0.04901460  1
  Mo  Mo5  1  5.35261000  1.84114000  3.53742000  1
  Mo  Mo6  1  5.41098000  7.25850000  1.92741000  1
  Mo  Mo7  1  3.69709000  1.87506000  1.80218000  1
  Mo  Mo8  1  -0.13187100  3.61300000  3.54277000  1
  Mo  Mo9  1  1.82509000  5.52582000  0.04643790  1
  Mo  Mo10  1  1.78951000  3.56428000  1.74366000  1
  Mo  Mo11  1  7.29588000  5.50552000  1.83354000  1
  Mo  Mo12  1  3.60831000  3.71700000  -0.03555640  1
  Mo  Mo13  1  5.56353000  5.51812000  3.72965000  1
  Mo  Mo14  1  5.47328000  3.57424000  1.78887000  1
  Mo  Mo15  1  3.68475000  5.42815000  1.92569000  1
