# generated using pymatgen
data_Mo
_symmetry_space_group_name_H-M   'P 1'
_cell_length_a   7.28858920
_cell_length_b   7.28858920
_cell_length_c   3.64429450
_cell_angle_alpha   90.00000000
_cell_angle_beta   90.00000000
_cell_angle_gamma   90.00000000
_symmetry_Int_Tables_number   1
_chemical_formula_structural   Mo
_chemical_formula_sum   Mo16
_cell_volume   193.59779752
_cell_formula_units_Z   16
loop_
 _symmetry_equiv_pos_site_id
 _symmetry_equiv_pos_as_xyz
  1  'x, y, z'
loop_
 _atom_site_type_symbol
 _atom_site_label
 _atom_site_symmetry_multiplicity
 _atom_site_fract_x
 _atom_site_fract_y
 _atom_site_fract_z
 _atom_site_occupancy
  Mo  Mo0  1  -0.00264932  -0.01644060  3.52680000  1
  Mo  Mo1  1  1.70800000  1.76350000  -0.00265562  1
  Mo  Mo2  1  1.72641000  7.30299000  1.81978000  1
  Mo  Mo3  1  7.36230000  1.94743000  1.86462000  1
  Mo  Mo4  1  3.70503000  0.15150900  0.09231980  1
  Mo  Mo5  1  5.43638000  1.77329000  3.60160000  1
  Mo  Mo6  1  5.61938000  7.23018000  1.86599000  1
  Mo  Mo7  1  3.69124000  1.75048000  1.80986000  1
  Mo  Mo8  1  -0.03245190  3.61845000  3.63335000  1
  Mo  Mo9  1  1.83754000  5.56085000  -0.02269570  1
  Mo  Mo10  1  1.86303000  3.68386000  1.84591000  1
  Mo  Mo11  1  7.19894000  5.37108000  1.84403000  1
  Mo  Mo12  1  3.64471000  3.57373000  -0.00366926  1
  Mo  Mo13  1  5.41593000  5.45489000  3.70115000  1
  Mo  Mo14  1  5.44266000  3.62628000  1.69716000  1
  Mo  Mo15  1  3.60757000  5.43191000  1.83846000  1
