# generated using pymatgen
data_Mo
_symmetry_space_group_name_H-M   'P 1'
_cell_length_a   7.28858920
_cell_length_b   7.28858920
_cell_length_c   3.64429450
_cell_angle_alpha   90.00000000
_cell_angle_beta   90.00000000
_cell_angle_gamma   90.00000000
_symmetry_Int_Tables_number   1
_chemical_formula_structural   Mo
_chemical_formula_sum   Mo16
_cell_volume   193.59779752
_cell_formula_units_Z   16
loop_
 _symmetry_equiv_pos_site_id
 _symmetry_equiv_pos_as_xyz
  1  'x, y, z'
loop_
 _atom_site_type_symbol
 _atom_site_label
 _atom_site_symmetry_multiplicity
 _atom_site_fract_x
 _atom_site_fract_y
 _atom_site_fract_z
 _atom_site_occupancy
  Mo  Mo0  1  0.02585470  -0.02684140  3.51254000  1
  Mo  Mo1  1  1.86822000  1.80627000  -0.02459460  1
  Mo  Mo2  1  1.89095000  7.32786000  1.83829000  1
  Mo  Mo3  1  7.30240000  1.80483000  1.88311000  1
  Mo  Mo4  1  3.65178000  -0.04381770  0.04963460  1
  Mo  Mo5  1  5.36495000  1.81801000  3.59002000  1
  Mo  Mo6  1  5.33908000  7.40746000  1.87376000  1
  Mo  Mo7  1  3.65324000  1.80396000  1.79596000  1
  Mo  Mo8  1  -0.01339860  3.59195000  3.64967000  1
  Mo  Mo9  1  1.85991000  5.41145000  -0.01989350  1
  Mo  Mo10  1  1.80741000  3.62730000  1.81372000  1
  Mo  Mo11  1  7.21951000  5.56527000  1.86056000  1
  Mo  Mo12  1  3.67902000  3.69970000  -0.04280000  1
  Mo  Mo13  1  5.52481000  5.46428000  3.66563000  1
  Mo  Mo14  1  5.50795000  3.54256000  1.80857000  1
  Mo  Mo15  1  3.54232000  5.42374000  1.85781000  1
