# generated using pymatgen
data_Mo
_symmetry_space_group_name_H-M   'P 1'
_cell_length_a   7.28858920
_cell_length_b   7.28858920
_cell_length_c   3.64429450
_cell_angle_alpha   90.00000000
_cell_angle_beta   90.00000000
_cell_angle_gamma   90.00000000
_symmetry_Int_Tables_number   1
_chemical_formula_structural   Mo
_chemical_formula_sum   Mo16
_cell_volume   193.59779752
_cell_formula_units_Z   16
loop_
 _symmetry_equiv_pos_site_id
 _symmetry_equiv_pos_as_xyz
  1  'x, y, z'
loop_
 _atom_site_type_symbol
 _atom_site_label
 _atom_site_symmetry_multiplicity
 _atom_site_fract_x
 _atom_site_fract_y
 _atom_site_fract_z
 _atom_site_occupancy
  Mo  Mo0  1  0.02832820  -0.00026958  3.63455000  1
  Mo  Mo1  1  1.78911000  1.82947000  0.00278076  1
  Mo  Mo2  1  1.87114000  7.25149000  1.82187000  1
  Mo  Mo3  1  7.26212000  1.74077000  1.85669000  1
  Mo  Mo4  1  3.72449000  0.05395370  -0.06346900  1
  Mo  Mo5  1  5.58292000  1.75900000  3.67251000  1
  Mo  Mo6  1  5.33510000  7.30050000  1.78870000  1
  Mo  Mo7  1  3.62496000  1.88657000  1.85679000  1
  Mo  Mo8  1  -0.04908140  3.57512000  3.61668000  1
  Mo  Mo9  1  1.84164000  5.44432000  -0.03207980  1
  Mo  Mo10  1  1.69227000  3.63256000  1.95485000  1
  Mo  Mo11  1  7.33157000  5.62238000  1.85028000  1
  Mo  Mo12  1  3.58890000  3.57800000  -0.01614730  1
  Mo  Mo13  1  5.45772000  5.39867000  3.58301000  1
  Mo  Mo14  1  5.43387000  3.66027000  1.74808000  1
  Mo  Mo15  1  3.70895000  5.49119000  1.83690000  1
