# generated using pymatgen
data_Mo
_symmetry_space_group_name_H-M   'P 1'
_cell_length_a   7.28858920
_cell_length_b   7.28858920
_cell_length_c   3.64429450
_cell_angle_alpha   90.00000000
_cell_angle_beta   90.00000000
_cell_angle_gamma   90.00000000
_symmetry_Int_Tables_number   1
_chemical_formula_structural   Mo
_chemical_formula_sum   Mo16
_cell_volume   193.59779752
_cell_formula_units_Z   16
loop_
 _symmetry_equiv_pos_site_id
 _symmetry_equiv_pos_as_xyz
  1  'x, y, z'
loop_
 _atom_site_type_symbol
 _atom_site_label
 _atom_site_symmetry_multiplicity
 _atom_site_fract_x
 _atom_site_fract_y
 _atom_site_fract_z
 _atom_site_occupancy
  Mo  Mo0  1  0.01919370  -0.09726020  3.56126000  1
  Mo  Mo1  1  1.81549000  1.74043000  0.03575210  1
  Mo  Mo2  1  1.80517000  7.16824000  1.76130000  1
  Mo  Mo3  1  7.33640000  1.92083000  1.88817000  1
  Mo  Mo4  1  3.64324000  -0.01090040  0.05067520  1
  Mo  Mo5  1  5.36806000  1.87447000  3.64915000  1
  Mo  Mo6  1  5.48706000  7.34647000  1.82552000  1
  Mo  Mo7  1  3.59421000  1.79824000  1.78335000  1
  Mo  Mo8  1  0.00123984  3.67874000  3.74166000  1
  Mo  Mo9  1  1.89024000  5.46204000  -0.04157140  1
  Mo  Mo10  1  1.84463000  3.73039000  1.81109000  1
  Mo  Mo11  1  7.20536000  5.48873000  1.82730000  1
  Mo  Mo12  1  3.63745000  3.62765000  0.00829259  1
  Mo  Mo13  1  5.46671000  5.43642000  3.69153000  1
  Mo  Mo14  1  5.52039000  3.61542000  1.74073000  1
  Mo  Mo15  1  3.58918000  5.44407000  1.77779000  1
