# generated using pymatgen
data_Mo
_symmetry_space_group_name_H-M   'P 1'
_cell_length_a   7.28858920
_cell_length_b   7.28858920
_cell_length_c   3.64429450
_cell_angle_alpha   90.00000000
_cell_angle_beta   90.00000000
_cell_angle_gamma   90.00000000
_symmetry_Int_Tables_number   1
_chemical_formula_structural   Mo
_chemical_formula_sum   Mo16
_cell_volume   193.59779752
_cell_formula_units_Z   16
loop_
 _symmetry_equiv_pos_site_id
 _symmetry_equiv_pos_as_xyz
  1  'x, y, z'
loop_
 _atom_site_type_symbol
 _atom_site_label
 _atom_site_symmetry_multiplicity
 _atom_site_fract_x
 _atom_site_fract_y
 _atom_site_fract_z
 _atom_site_occupancy
  Mo  Mo0  1  0.03482380  -0.03353280  3.64555000  1
  Mo  Mo1  1  1.75253000  1.81818000  0.00544276  1
  Mo  Mo2  1  1.73159000  7.31562000  1.77339000  1
  Mo  Mo3  1  7.31518000  1.89615000  1.82424000  1
  Mo  Mo4  1  3.61693000  0.05014930  -0.01395160  1
  Mo  Mo5  1  5.50716000  1.91629000  3.69638000  1
  Mo  Mo6  1  5.45475000  7.31970000  1.86167000  1
  Mo  Mo7  1  3.69939000  1.82729000  1.76451000  1
  Mo  Mo8  1  0.04661600  3.59582000  3.66435000  1
  Mo  Mo9  1  1.86767000  5.41669000  0.05983700  1
  Mo  Mo10  1  1.80313000  3.60540000  1.73038000  1
  Mo  Mo11  1  7.22634000  5.38567000  1.72186000  1
  Mo  Mo12  1  3.73636000  3.47557000  0.00753303  1
  Mo  Mo13  1  5.41713000  5.45233000  3.67092000  1
  Mo  Mo14  1  5.44460000  3.65092000  1.88307000  1
  Mo  Mo15  1  3.56980000  5.53176000  1.81682000  1
