# generated using pymatgen
data_Mo
_symmetry_space_group_name_H-M   'P 1'
_cell_length_a   7.28858920
_cell_length_b   7.28858920
_cell_length_c   3.64429450
_cell_angle_alpha   90.00000000
_cell_angle_beta   90.00000000
_cell_angle_gamma   90.00000000
_symmetry_Int_Tables_number   1
_chemical_formula_structural   Mo
_chemical_formula_sum   Mo16
_cell_volume   193.59779752
_cell_formula_units_Z   16
loop_
 _symmetry_equiv_pos_site_id
 _symmetry_equiv_pos_as_xyz
  1  'x, y, z'
loop_
 _atom_site_type_symbol
 _atom_site_label
 _atom_site_symmetry_multiplicity
 _atom_site_fract_x
 _atom_site_fract_y
 _atom_site_fract_z
 _atom_site_occupancy
  Mo  Mo0  1  -0.09889980  -0.08455890  3.70071000  1
  Mo  Mo1  1  1.83307000  1.80487000  0.02426210  1
  Mo  Mo2  1  1.74187000  7.34940000  1.76461000  1
  Mo  Mo3  1  7.17312000  1.78483000  1.79728000  1
  Mo  Mo4  1  3.69130000  -0.08447920  0.00335703  1
  Mo  Mo5  1  5.60724000  1.89198000  3.62812000  1
  Mo  Mo6  1  5.48394000  7.35101000  1.83304000  1
  Mo  Mo7  1  3.60564000  1.78328000  1.75826000  1
  Mo  Mo8  1  0.05842410  3.72633000  3.74611000  1
  Mo  Mo9  1  1.91052000  5.42111000  0.02157120  1
  Mo  Mo10  1  1.85008000  3.50162000  1.85549000  1
  Mo  Mo11  1  7.32396000  5.48389000  1.78830000  1
  Mo  Mo12  1  3.56880000  3.59591000  -0.10139500  1
  Mo  Mo13  1  5.42325000  5.44482000  3.67302000  1
  Mo  Mo14  1  5.35476000  3.62167000  1.83451000  1
  Mo  Mo15  1  3.69693000  5.63231000  1.78475000  1
