# generated using pymatgen
data_Mo
_symmetry_space_group_name_H-M   'P 1'
_cell_length_a   7.28858920
_cell_length_b   7.28858920
_cell_length_c   3.64429450
_cell_angle_alpha   90.00000000
_cell_angle_beta   90.00000000
_cell_angle_gamma   90.00000000
_symmetry_Int_Tables_number   1
_chemical_formula_structural   Mo
_chemical_formula_sum   Mo16
_cell_volume   193.59779752
_cell_formula_units_Z   16
loop_
 _symmetry_equiv_pos_site_id
 _symmetry_equiv_pos_as_xyz
  1  'x, y, z'
loop_
 _atom_site_type_symbol
 _atom_site_label
 _atom_site_symmetry_multiplicity
 _atom_site_fract_x
 _atom_site_fract_y
 _atom_site_fract_z
 _atom_site_occupancy
  Mo  Mo0  1  0.02723880  0.04243690  3.66885000  1
  Mo  Mo1  1  1.72111000  1.88934000  0.02456020  1
  Mo  Mo2  1  1.91287000  7.17692000  1.78966000  1
  Mo  Mo3  1  7.32734000  1.85201000  1.81682000  1
  Mo  Mo4  1  3.65587000  0.00186221  -0.02235070  1
  Mo  Mo5  1  5.45488000  1.84675000  3.61788000  1
  Mo  Mo6  1  5.51024000  7.20247000  1.91848000  1
  Mo  Mo7  1  3.66634000  1.83985000  1.80954000  1
  Mo  Mo8  1  0.01928830  3.65771000  3.62966000  1
  Mo  Mo9  1  1.75928000  5.45801000  0.04404750  1
  Mo  Mo10  1  1.80649000  3.77802000  1.86422000  1
  Mo  Mo11  1  7.22983000  5.39840000  1.83500000  1
  Mo  Mo12  1  3.65473000  3.52176000  -0.02981180  1
  Mo  Mo13  1  5.46836000  5.51525000  3.63768000  1
  Mo  Mo14  1  5.39726000  3.66026000  1.78853000  1
  Mo  Mo15  1  3.61285000  5.38296000  1.71924000  1
