# generated using pymatgen
data_Mo
_symmetry_space_group_name_H-M   'P 1'
_cell_length_a   7.27806742
_cell_length_b   7.27806742
_cell_length_c   3.63903379
_cell_angle_alpha   90.00000000
_cell_angle_beta   90.00000000
_cell_angle_gamma   90.00000000
_symmetry_Int_Tables_number   1
_chemical_formula_structural   Mo
_chemical_formula_sum   Mo16
_cell_volume   192.76058556
_cell_formula_units_Z   16
loop_
 _symmetry_equiv_pos_site_id
 _symmetry_equiv_pos_as_xyz
  1  'x, y, z'
loop_
 _atom_site_type_symbol
 _atom_site_label
 _atom_site_symmetry_multiplicity
 _atom_site_fract_x
 _atom_site_fract_y
 _atom_site_fract_z
 _atom_site_occupancy
  Mo  Mo0  1  -0.00988510  7.29262000  3.66121000  1
  Mo  Mo1  1  1.82217000  1.81100000  -0.00742031  1
  Mo  Mo2  1  1.79932000  7.28534000  1.81367000  1
  Mo  Mo3  1  7.29063000  1.82998000  1.80909000  1
  Mo  Mo4  1  3.65079000  7.29054000  -0.02324640  1
  Mo  Mo5  1  5.46523000  1.82262000  -0.00968606  1
  Mo  Mo6  1  5.46255000  -0.01669010  1.79553000  1
  Mo  Mo7  1  3.64012000  1.80869000  1.79564000  1
  Mo  Mo8  1  7.27830000  3.63392000  3.66293000  1
  Mo  Mo9  1  1.84449000  5.45548000  3.65314000  1
  Mo  Mo10  1  1.78730000  3.64958000  1.85811000  1
  Mo  Mo11  1  0.00274198  5.45368000  1.81184000  1
  Mo  Mo12  1  3.62609000  3.61945000  3.61834000  1
  Mo  Mo13  1  5.46506000  5.45804000  3.65549000  1
  Mo  Mo14  1  5.46571000  3.63916000  1.82601000  1
  Mo  Mo15  1  3.63338000  5.46866000  1.83038000  1
