# generated using pymatgen
data_Mo
_symmetry_space_group_name_H-M   'P 1'
_cell_length_a   7.28858920
_cell_length_b   7.28858920
_cell_length_c   3.64429450
_cell_angle_alpha   90.00000000
_cell_angle_beta   90.00000000
_cell_angle_gamma   90.00000000
_symmetry_Int_Tables_number   1
_chemical_formula_structural   Mo
_chemical_formula_sum   Mo16
_cell_volume   193.59779752
_cell_formula_units_Z   16
loop_
 _symmetry_equiv_pos_site_id
 _symmetry_equiv_pos_as_xyz
  1  'x, y, z'
loop_
 _atom_site_type_symbol
 _atom_site_label
 _atom_site_symmetry_multiplicity
 _atom_site_fract_x
 _atom_site_fract_y
 _atom_site_fract_z
 _atom_site_occupancy
  Mo  Mo0  1  -0.00521275  0.07688250  3.68047000  1
  Mo  Mo1  1  1.86847000  1.88433000  -0.04916260  1
  Mo  Mo2  1  1.93462000  7.20010000  1.90050000  1
  Mo  Mo3  1  7.20302000  1.78671000  1.82348000  1
  Mo  Mo4  1  3.62415000  0.03409950  -0.03028760  1
  Mo  Mo5  1  5.43439000  1.76046000  3.58823000  1
  Mo  Mo6  1  5.50575000  7.16850000  1.77138000  1
  Mo  Mo7  1  3.67330000  1.91166000  1.81423000  1
  Mo  Mo8  1  -0.12447700  3.62400000  3.55984000  1
  Mo  Mo9  1  1.67670000  5.53417000  0.03580210  1
  Mo  Mo10  1  1.70481000  3.69459000  1.88386000  1
  Mo  Mo11  1  7.40828000  5.40433000  1.85544000  1
  Mo  Mo12  1  3.58787000  3.68353000  -0.02071650  1
  Mo  Mo13  1  5.49762000  5.46972000  3.59840000  1
  Mo  Mo14  1  5.56539000  3.64379000  1.82166000  1
  Mo  Mo15  1  3.66932000  5.34714000  1.87888000  1
