# generated using pymatgen
data_Mo
_symmetry_space_group_name_H-M   'P 1'
_cell_length_a   7.28858920
_cell_length_b   7.28858920
_cell_length_c   3.64429450
_cell_angle_alpha   90.00000000
_cell_angle_beta   90.00000000
_cell_angle_gamma   90.00000000
_symmetry_Int_Tables_number   1
_chemical_formula_structural   Mo
_chemical_formula_sum   Mo16
_cell_volume   193.59779752
_cell_formula_units_Z   16
loop_
 _symmetry_equiv_pos_site_id
 _symmetry_equiv_pos_as_xyz
  1  'x, y, z'
loop_
 _atom_site_type_symbol
 _atom_site_label
 _atom_site_symmetry_multiplicity
 _atom_site_fract_x
 _atom_site_fract_y
 _atom_site_fract_z
 _atom_site_occupancy
  Mo  Mo0  1  0.00853977  0.06281190  3.63297000  1
  Mo  Mo1  1  1.90521000  1.84640000  -0.04157490  1
  Mo  Mo2  1  1.80233000  7.32933000  1.77548000  1
  Mo  Mo3  1  7.27483000  1.80093000  1.73963000  1
  Mo  Mo4  1  3.60354000  -0.08124660  -0.01873130  1
  Mo  Mo5  1  5.53324000  1.66731000  3.72088000  1
  Mo  Mo6  1  5.39301000  7.26657000  1.73696000  1
  Mo  Mo7  1  3.58688000  1.97441000  1.89926000  1
  Mo  Mo8  1  -0.02004730  3.58658000  3.63220000  1
  Mo  Mo9  1  1.76823000  5.45569000  0.04539350  1
  Mo  Mo10  1  1.72269000  3.63038000  1.83460000  1
  Mo  Mo11  1  7.24385000  5.56397000  1.76821000  1
  Mo  Mo12  1  3.71294000  3.58448000  0.05339460  1
  Mo  Mo13  1  5.49348000  5.51047000  3.68879000  1
  Mo  Mo14  1  5.50063000  3.62895000  1.84625000  1
  Mo  Mo15  1  3.69465000  5.39695000  1.79828000  1
