# generated using pymatgen
data_Mo
_symmetry_space_group_name_H-M   'P 1'
_cell_length_a   7.28858920
_cell_length_b   7.28858920
_cell_length_c   3.64429450
_cell_angle_alpha   90.00000000
_cell_angle_beta   90.00000000
_cell_angle_gamma   90.00000000
_symmetry_Int_Tables_number   1
_chemical_formula_structural   Mo
_chemical_formula_sum   Mo16
_cell_volume   193.59779752
_cell_formula_units_Z   16
loop_
 _symmetry_equiv_pos_site_id
 _symmetry_equiv_pos_as_xyz
  1  'x, y, z'
loop_
 _atom_site_type_symbol
 _atom_site_label
 _atom_site_symmetry_multiplicity
 _atom_site_fract_x
 _atom_site_fract_y
 _atom_site_fract_z
 _atom_site_occupancy
  Mo  Mo0  1  -0.02156430  0.03772110  3.63855000  1
  Mo  Mo1  1  1.72882000  1.90349000  0.02954980  1
  Mo  Mo2  1  1.86170000  7.30323000  1.83712000  1
  Mo  Mo3  1  7.31348000  1.65599000  1.86892000  1
  Mo  Mo4  1  3.58429000  0.08946240  -0.04650450  1
  Mo  Mo5  1  5.37452000  1.78322000  3.61018000  1
  Mo  Mo6  1  5.41089000  7.33156000  1.85490000  1
  Mo  Mo7  1  3.68963000  1.80048000  1.78477000  1
  Mo  Mo8  1  -0.04415290  3.58622000  3.60703000  1
  Mo  Mo9  1  1.77787000  5.40553000  -0.07555570  1
  Mo  Mo10  1  1.80260000  3.63647000  1.80601000  1
  Mo  Mo11  1  7.27595000  5.56450000  1.87243000  1
  Mo  Mo12  1  3.71150000  3.66431000  0.05919790  1
  Mo  Mo13  1  5.49375000  5.53143000  3.60208000  1
  Mo  Mo14  1  5.61244000  3.57106000  1.84582000  1
  Mo  Mo15  1  3.65228000  5.35933000  1.81752000  1
