# generated using pymatgen
data_Mo
_symmetry_space_group_name_H-M   'P 1'
_cell_length_a   7.28858920
_cell_length_b   7.28858920
_cell_length_c   3.64429450
_cell_angle_alpha   90.00000000
_cell_angle_beta   90.00000000
_cell_angle_gamma   90.00000000
_symmetry_Int_Tables_number   1
_chemical_formula_structural   Mo
_chemical_formula_sum   Mo16
_cell_volume   193.59779752
_cell_formula_units_Z   16
loop_
 _symmetry_equiv_pos_site_id
 _symmetry_equiv_pos_as_xyz
  1  'x, y, z'
loop_
 _atom_site_type_symbol
 _atom_site_label
 _atom_site_symmetry_multiplicity
 _atom_site_fract_x
 _atom_site_fract_y
 _atom_site_fract_z
 _atom_site_occupancy
  Mo  Mo0  1  -0.05101900  -0.07243510  3.61843000  1
  Mo  Mo1  1  1.71926000  1.80154000  -0.02324410  1
  Mo  Mo2  1  1.93264000  7.27336000  1.80509000  1
  Mo  Mo3  1  7.36851000  1.74114000  1.77371000  1
  Mo  Mo4  1  3.57967000  0.06491270  -0.02563410  1
  Mo  Mo5  1  5.42908000  1.84865000  3.58343000  1
  Mo  Mo6  1  5.42595000  7.30058000  1.85632000  1
  Mo  Mo7  1  3.57902000  1.90018000  1.85430000  1
  Mo  Mo8  1  0.04394500  3.71796000  3.63492000  1
  Mo  Mo9  1  1.85111000  5.53893000  0.02561950  1
  Mo  Mo10  1  1.81144000  3.65373000  1.84761000  1
  Mo  Mo11  1  7.17926000  5.46275000  1.84376000  1
  Mo  Mo12  1  3.68049000  3.49467000  0.02243190  1
  Mo  Mo13  1  5.43374000  5.54711000  3.63140000  1
  Mo  Mo14  1  5.57031000  3.59071000  1.87807000  1
  Mo  Mo15  1  3.67059000  5.36022000  1.78578000  1
