# generated using pymatgen
data_Mo
_symmetry_space_group_name_H-M   'P 1'
_cell_length_a   7.28858920
_cell_length_b   7.28858920
_cell_length_c   3.64429450
_cell_angle_alpha   90.00000000
_cell_angle_beta   90.00000000
_cell_angle_gamma   90.00000000
_symmetry_Int_Tables_number   1
_chemical_formula_structural   Mo
_chemical_formula_sum   Mo16
_cell_volume   193.59779752
_cell_formula_units_Z   16
loop_
 _symmetry_equiv_pos_site_id
 _symmetry_equiv_pos_as_xyz
  1  'x, y, z'
loop_
 _atom_site_type_symbol
 _atom_site_label
 _atom_site_symmetry_multiplicity
 _atom_site_fract_x
 _atom_site_fract_y
 _atom_site_fract_z
 _atom_site_occupancy
  Mo  Mo0  1  0.00083813  0.04840930  3.61168000  1
  Mo  Mo1  1  1.85836000  1.87902000  0.05348940  1
  Mo  Mo2  1  1.79857000  7.21550000  1.86738000  1
  Mo  Mo3  1  7.16847000  1.87403000  1.88080000  1
  Mo  Mo4  1  3.66303000  0.08638370  0.04372710  1
  Mo  Mo5  1  5.41422000  1.76834000  3.67793000  1
  Mo  Mo6  1  5.48558000  7.17292000  1.63795000  1
  Mo  Mo7  1  3.65851000  1.75138000  1.85029000  1
  Mo  Mo8  1  -0.07003390  3.61303000  3.67999000  1
  Mo  Mo9  1  1.80542000  5.43579000  -0.04001240  1
  Mo  Mo10  1  1.89414000  3.67448000  1.82009000  1
  Mo  Mo11  1  7.43035000  5.43208000  1.74495000  1
  Mo  Mo12  1  3.57371000  3.62455000  0.03751610  1
  Mo  Mo13  1  5.46640000  5.47611000  3.58342000  1
  Mo  Mo14  1  5.40240000  3.68201000  1.82697000  1
  Mo  Mo15  1  3.67404000  5.48997000  1.83582000  1
