# generated using pymatgen
data_Mo
_symmetry_space_group_name_H-M   'P 1'
_cell_length_a   7.28858920
_cell_length_b   7.28858920
_cell_length_c   3.64429450
_cell_angle_alpha   90.00000000
_cell_angle_beta   90.00000000
_cell_angle_gamma   90.00000000
_symmetry_Int_Tables_number   1
_chemical_formula_structural   Mo
_chemical_formula_sum   Mo16
_cell_volume   193.59779752
_cell_formula_units_Z   16
loop_
 _symmetry_equiv_pos_site_id
 _symmetry_equiv_pos_as_xyz
  1  'x, y, z'
loop_
 _atom_site_type_symbol
 _atom_site_label
 _atom_site_symmetry_multiplicity
 _atom_site_fract_x
 _atom_site_fract_y
 _atom_site_fract_z
 _atom_site_occupancy
  Mo  Mo0  1  0.04839190  -0.02684420  3.64431000  1
  Mo  Mo1  1  1.94592000  1.84776000  0.03851000  1
  Mo  Mo2  1  1.74195000  7.32165000  1.88558000  1
  Mo  Mo3  1  7.29380000  1.89334000  1.94223000  1
  Mo  Mo4  1  3.63743000  -0.07035470  0.03217490  1
  Mo  Mo5  1  5.49178000  1.79974000  3.62511000  1
  Mo  Mo6  1  5.51494000  7.33444000  1.78957000  1
  Mo  Mo7  1  3.57687000  1.77582000  1.82349000  1
  Mo  Mo8  1  -0.11400000  3.73421000  3.59434000  1
  Mo  Mo9  1  1.80797000  5.37143000  -0.04105040  1
  Mo  Mo10  1  1.76284000  3.54048000  1.83954000  1
  Mo  Mo11  1  7.28782000  5.54582000  1.77504000  1
  Mo  Mo12  1  3.58718000  3.67179000  0.00932236  1
  Mo  Mo13  1  5.47474000  5.43018000  3.54592000  1
  Mo  Mo14  1  5.48049000  3.63775000  1.72812000  1
  Mo  Mo15  1  3.68588000  5.41678000  1.87978000  1
