# generated using pymatgen
data_Mo
_symmetry_space_group_name_H-M   'P 1'
_cell_length_a   7.28858920
_cell_length_b   7.28858920
_cell_length_c   3.64429450
_cell_angle_alpha   90.00000000
_cell_angle_beta   90.00000000
_cell_angle_gamma   90.00000000
_symmetry_Int_Tables_number   1
_chemical_formula_structural   Mo
_chemical_formula_sum   Mo16
_cell_volume   193.59779752
_cell_formula_units_Z   16
loop_
 _symmetry_equiv_pos_site_id
 _symmetry_equiv_pos_as_xyz
  1  'x, y, z'
loop_
 _atom_site_type_symbol
 _atom_site_label
 _atom_site_symmetry_multiplicity
 _atom_site_fract_x
 _atom_site_fract_y
 _atom_site_fract_z
 _atom_site_occupancy
  Mo  Mo0  1  0.02152200  -0.05628300  3.61094000  1
  Mo  Mo1  1  1.74641000  1.86223000  0.09921830  1
  Mo  Mo2  1  1.77340000  7.40916000  1.82012000  1
  Mo  Mo3  1  7.22867000  1.82062000  1.80972000  1
  Mo  Mo4  1  3.65128000  -0.03878450  -0.03739220  1
  Mo  Mo5  1  5.37888000  1.81330000  3.64315000  1
  Mo  Mo6  1  5.49838000  7.32459000  1.83894000  1
  Mo  Mo7  1  3.64150000  1.85277000  1.91279000  1
  Mo  Mo8  1  0.06105100  3.64973000  3.67265000  1
  Mo  Mo9  1  1.91980000  5.41020000  -0.02028940  1
  Mo  Mo10  1  1.84426000  3.58183000  1.81063000  1
  Mo  Mo11  1  7.28779000  5.40635000  1.74297000  1
  Mo  Mo12  1  3.68389000  3.60366000  0.03005100  1
  Mo  Mo13  1  5.49459000  5.46767000  3.60484000  1
  Mo  Mo14  1  5.37877000  3.62166000  1.84611000  1
  Mo  Mo15  1  3.61380000  5.49530000  1.72756000  1
