# generated using pymatgen
data_Mo
_symmetry_space_group_name_H-M   'P 1'
_cell_length_a   7.28858920
_cell_length_b   7.28858920
_cell_length_c   3.64429450
_cell_angle_alpha   90.00000000
_cell_angle_beta   90.00000000
_cell_angle_gamma   90.00000000
_symmetry_Int_Tables_number   1
_chemical_formula_structural   Mo
_chemical_formula_sum   Mo16
_cell_volume   193.59779752
_cell_formula_units_Z   16
loop_
 _symmetry_equiv_pos_site_id
 _symmetry_equiv_pos_as_xyz
  1  'x, y, z'
loop_
 _atom_site_type_symbol
 _atom_site_label
 _atom_site_symmetry_multiplicity
 _atom_site_fract_x
 _atom_site_fract_y
 _atom_site_fract_z
 _atom_site_occupancy
  Mo  Mo0  1  -0.05160490  -0.01480460  3.65586000  1
  Mo  Mo1  1  1.81110000  1.89301000  0.01048370  1
  Mo  Mo2  1  1.70467000  7.33512000  1.83179000  1
  Mo  Mo3  1  7.30968000  1.81754000  1.76084000  1
  Mo  Mo4  1  3.63356000  -0.06086700  0.03351370  1
  Mo  Mo5  1  5.64825000  1.86943000  3.65063000  1
  Mo  Mo6  1  5.51664000  7.30017000  1.85462000  1
  Mo  Mo7  1  3.59329000  1.77632000  1.86070000  1
  Mo  Mo8  1  0.03898220  3.69293000  3.61251000  1
  Mo  Mo9  1  1.77860000  5.42834000  -0.04065840  1
  Mo  Mo10  1  1.87436000  3.61056000  1.79990000  1
  Mo  Mo11  1  7.24355000  5.43739000  1.75670000  1
  Mo  Mo12  1  3.60374000  3.59755000  -0.05787590  1
  Mo  Mo13  1  5.43335000  5.38557000  3.63509000  1
  Mo  Mo14  1  5.35047000  3.60700000  1.88371000  1
  Mo  Mo15  1  3.73536000  5.54872000  1.86419000  1
