# generated using pymatgen
data_Mo
_symmetry_space_group_name_H-M   'P 1'
_cell_length_a   7.28858920
_cell_length_b   7.28858920
_cell_length_c   3.64429450
_cell_angle_alpha   90.00000000
_cell_angle_beta   90.00000000
_cell_angle_gamma   90.00000000
_symmetry_Int_Tables_number   1
_chemical_formula_structural   Mo
_chemical_formula_sum   Mo16
_cell_volume   193.59779752
_cell_formula_units_Z   16
loop_
 _symmetry_equiv_pos_site_id
 _symmetry_equiv_pos_as_xyz
  1  'x, y, z'
loop_
 _atom_site_type_symbol
 _atom_site_label
 _atom_site_symmetry_multiplicity
 _atom_site_fract_x
 _atom_site_fract_y
 _atom_site_fract_z
 _atom_site_occupancy
  Mo  Mo0  1  0.01368560  0.00803172  3.64421000  1
  Mo  Mo1  1  1.73628000  1.88644000  0.05230220  1
  Mo  Mo2  1  1.93872000  7.23723000  1.83724000  1
  Mo  Mo3  1  7.35131000  1.82890000  1.79430000  1
  Mo  Mo4  1  3.67599000  0.02379850  0.06346160  1
  Mo  Mo5  1  5.39121000  1.80896000  3.60263000  1
  Mo  Mo6  1  5.49063000  7.15415000  1.83655000  1
  Mo  Mo7  1  3.66211000  1.86157000  1.76324000  1
  Mo  Mo8  1  -0.00295199  3.56078000  3.63485000  1
  Mo  Mo9  1  1.82126000  5.49051000  0.00409229  1
  Mo  Mo10  1  1.83899000  3.63932000  1.75220000  1
  Mo  Mo11  1  7.27449000  5.52324000  1.83211000  1
  Mo  Mo12  1  3.57513000  3.64776000  0.03955510  1
  Mo  Mo13  1  5.41776000  5.53906000  3.67451000  1
  Mo  Mo14  1  5.47090000  3.67925000  1.71407000  1
  Mo  Mo15  1  3.56848000  5.33500000  1.86669000  1
