# generated using pymatgen
data_Mo
_symmetry_space_group_name_H-M   'P 1'
_cell_length_a   7.28858920
_cell_length_b   7.28858920
_cell_length_c   3.64429450
_cell_angle_alpha   90.00000000
_cell_angle_beta   90.00000000
_cell_angle_gamma   90.00000000
_symmetry_Int_Tables_number   1
_chemical_formula_structural   Mo
_chemical_formula_sum   Mo16
_cell_volume   193.59779752
_cell_formula_units_Z   16
loop_
 _symmetry_equiv_pos_site_id
 _symmetry_equiv_pos_as_xyz
  1  'x, y, z'
loop_
 _atom_site_type_symbol
 _atom_site_label
 _atom_site_symmetry_multiplicity
 _atom_site_fract_x
 _atom_site_fract_y
 _atom_site_fract_z
 _atom_site_occupancy
  Mo  Mo0  1  -0.04463000  0.05256920  3.66285000  1
  Mo  Mo1  1  1.78809000  1.81583000  0.01382970  1
  Mo  Mo2  1  1.82586000  7.36908000  1.77125000  1
  Mo  Mo3  1  7.18762000  1.79697000  1.82127000  1
  Mo  Mo4  1  3.57944000  -0.01178470  -0.00130987  1
  Mo  Mo5  1  5.37229000  1.75641000  3.67348000  1
  Mo  Mo6  1  5.50331000  7.32782000  1.93001000  1
  Mo  Mo7  1  3.68350000  1.80952000  1.80419000  1
  Mo  Mo8  1  0.05560040  3.53474000  3.60462000  1
  Mo  Mo9  1  1.78522000  5.43672000  0.01470570  1
  Mo  Mo10  1  1.88503000  3.64127000  1.84218000  1
  Mo  Mo11  1  7.29724000  5.36178000  1.75075000  1
  Mo  Mo12  1  3.71712000  3.68591000  -0.00537084  1
  Mo  Mo13  1  5.59085000  5.53690000  3.65716000  1
  Mo  Mo14  1  5.46823000  3.59295000  1.78728000  1
  Mo  Mo15  1  3.52921000  5.51731000  1.78510000  1
