# generated using pymatgen
data_Mo
_symmetry_space_group_name_H-M   'P 1'
_cell_length_a   7.27806742
_cell_length_b   7.27806742
_cell_length_c   3.63903379
_cell_angle_alpha   90.00000000
_cell_angle_beta   90.00000000
_cell_angle_gamma   90.00000000
_symmetry_Int_Tables_number   1
_chemical_formula_structural   Mo
_chemical_formula_sum   Mo16
_cell_volume   192.76058556
_cell_formula_units_Z   16
loop_
 _symmetry_equiv_pos_site_id
 _symmetry_equiv_pos_as_xyz
  1  'x, y, z'
loop_
 _atom_site_type_symbol
 _atom_site_label
 _atom_site_symmetry_multiplicity
 _atom_site_fract_x
 _atom_site_fract_y
 _atom_site_fract_z
 _atom_site_occupancy
  Mo  Mo0  1  -0.00756038  7.26270000  3.63488000  1
  Mo  Mo1  1  1.81275000  1.80901000  0.02846990  1
  Mo  Mo2  1  1.78847000  7.27882000  1.82780000  1
  Mo  Mo3  1  7.26453000  1.82002000  1.82618000  1
  Mo  Mo4  1  3.63393000  7.27031000  0.00349405  1
  Mo  Mo5  1  5.48749000  1.83849000  -0.00901132  1
  Mo  Mo6  1  5.44310000  0.01485030  1.83928000  1
  Mo  Mo7  1  3.64279000  1.82355000  1.82098000  1
  Mo  Mo8  1  7.28133000  3.64496000  3.62034000  1
  Mo  Mo9  1  1.82918000  5.46427000  3.61617000  1
  Mo  Mo10  1  1.82738000  3.62259000  1.80188000  1
  Mo  Mo11  1  0.02282960  5.46988000  1.79676000  1
  Mo  Mo12  1  3.64250000  3.64017000  3.63591000  1
  Mo  Mo13  1  5.46506000  5.45766000  3.63920000  1
  Mo  Mo14  1  5.45436000  3.61811000  1.84151000  1
  Mo  Mo15  1  3.63585000  5.46669000  1.82720000  1
