# generated using pymatgen
data_Mo
_symmetry_space_group_name_H-M   'P 1'
_cell_length_a   7.28858920
_cell_length_b   7.28858920
_cell_length_c   3.64429450
_cell_angle_alpha   90.00000000
_cell_angle_beta   90.00000000
_cell_angle_gamma   90.00000000
_symmetry_Int_Tables_number   1
_chemical_formula_structural   Mo
_chemical_formula_sum   Mo16
_cell_volume   193.59779752
_cell_formula_units_Z   16
loop_
 _symmetry_equiv_pos_site_id
 _symmetry_equiv_pos_as_xyz
  1  'x, y, z'
loop_
 _atom_site_type_symbol
 _atom_site_label
 _atom_site_symmetry_multiplicity
 _atom_site_fract_x
 _atom_site_fract_y
 _atom_site_fract_z
 _atom_site_occupancy
  Mo  Mo0  1  -0.00710952  0.09649930  3.62532000  1
  Mo  Mo1  1  1.83916000  1.84421000  -0.04685330  1
  Mo  Mo2  1  1.91217000  7.24523000  1.81375000  1
  Mo  Mo3  1  7.26753000  1.82185000  1.79424000  1
  Mo  Mo4  1  3.58888000  0.00058942  0.05940400  1
  Mo  Mo5  1  5.42080000  1.81590000  3.59125000  1
  Mo  Mo6  1  5.44335000  7.22126000  1.78372000  1
  Mo  Mo7  1  3.61819000  1.85629000  1.79955000  1
  Mo  Mo8  1  -0.08130970  3.60974000  3.63635000  1
  Mo  Mo9  1  1.73447000  5.52691000  -0.01140860  1
  Mo  Mo10  1  1.83871000  3.53928000  1.86549000  1
  Mo  Mo11  1  7.34496000  5.47641000  1.88015000  1
  Mo  Mo12  1  3.63059000  3.65110000  -0.06945280  1
  Mo  Mo13  1  5.43510000  5.50920000  3.68658000  1
  Mo  Mo14  1  5.50908000  3.64934000  1.80318000  1
  Mo  Mo15  1  3.72942000  5.36019000  1.90073000  1
