# generated using pymatgen
data_Mo
_symmetry_space_group_name_H-M   'P 1'
_cell_length_a   7.28858920
_cell_length_b   7.28858920
_cell_length_c   3.64429450
_cell_angle_alpha   90.00000000
_cell_angle_beta   90.00000000
_cell_angle_gamma   90.00000000
_symmetry_Int_Tables_number   1
_chemical_formula_structural   Mo
_chemical_formula_sum   Mo16
_cell_volume   193.59779752
_cell_formula_units_Z   16
loop_
 _symmetry_equiv_pos_site_id
 _symmetry_equiv_pos_as_xyz
  1  'x, y, z'
loop_
 _atom_site_type_symbol
 _atom_site_label
 _atom_site_symmetry_multiplicity
 _atom_site_fract_x
 _atom_site_fract_y
 _atom_site_fract_z
 _atom_site_occupancy
  Mo  Mo0  1  -0.01659400  -0.04061830  3.67348000  1
  Mo  Mo1  1  1.83598000  1.85371000  -0.11537500  1
  Mo  Mo2  1  1.76065000  7.21952000  1.91115000  1
  Mo  Mo3  1  7.29533000  1.79080000  1.78669000  1
  Mo  Mo4  1  3.63650000  0.04466860  0.01364720  1
  Mo  Mo5  1  5.55691000  1.77527000  3.65847000  1
  Mo  Mo6  1  5.32361000  7.22546000  1.83885000  1
  Mo  Mo7  1  3.59433000  1.85700000  1.74415000  1
  Mo  Mo8  1  0.03076830  3.61373000  3.62668000  1
  Mo  Mo9  1  1.77279000  5.47408000  -0.04374510  1
  Mo  Mo10  1  1.79939000  3.62086000  1.76391000  1
  Mo  Mo11  1  7.29408000  5.55614000  1.89160000  1
  Mo  Mo12  1  3.67191000  3.56908000  -0.08935190  1
  Mo  Mo13  1  5.49446000  5.39510000  3.75450000  1
  Mo  Mo14  1  5.45411000  3.73526000  1.79537000  1
  Mo  Mo15  1  3.71978000  5.53395000  1.90199000  1
