# generated using pymatgen
data_Mo
_symmetry_space_group_name_H-M   'P 1'
_cell_length_a   7.28858920
_cell_length_b   7.28858920
_cell_length_c   3.64429450
_cell_angle_alpha   90.00000000
_cell_angle_beta   90.00000000
_cell_angle_gamma   90.00000000
_symmetry_Int_Tables_number   1
_chemical_formula_structural   Mo
_chemical_formula_sum   Mo16
_cell_volume   193.59779752
_cell_formula_units_Z   16
loop_
 _symmetry_equiv_pos_site_id
 _symmetry_equiv_pos_as_xyz
  1  'x, y, z'
loop_
 _atom_site_type_symbol
 _atom_site_label
 _atom_site_symmetry_multiplicity
 _atom_site_fract_x
 _atom_site_fract_y
 _atom_site_fract_z
 _atom_site_occupancy
  Mo  Mo0  1  0.03482300  -0.05695720  3.56307000  1
  Mo  Mo1  1  1.95855000  1.86384000  -0.02175080  1
  Mo  Mo2  1  1.83143000  7.35639000  1.78851000  1
  Mo  Mo3  1  7.24509000  1.77182000  1.78534000  1
  Mo  Mo4  1  3.64094000  -0.11451400  0.02042700  1
  Mo  Mo5  1  5.53889000  1.79643000  3.59829000  1
  Mo  Mo6  1  5.38281000  7.31176000  1.87379000  1
  Mo  Mo7  1  3.66032000  1.87021000  1.88282000  1
  Mo  Mo8  1  0.02586650  3.75722000  3.64395000  1
  Mo  Mo9  1  1.83767000  5.39076000  -0.03116890  1
  Mo  Mo10  1  1.71996000  3.66589000  1.89343000  1
  Mo  Mo11  1  7.35414000  5.49989000  1.71357000  1
  Mo  Mo12  1  3.58874000  3.65650000  -0.04805760  1
  Mo  Mo13  1  5.41194000  5.37157000  3.66136000  1
  Mo  Mo14  1  5.40784000  3.63022000  1.86974000  1
  Mo  Mo15  1  3.58499000  5.45297000  1.91868000  1
