# generated using pymatgen
data_Mo
_symmetry_space_group_name_H-M   'P 1'
_cell_length_a   7.28858920
_cell_length_b   7.28858920
_cell_length_c   3.64429450
_cell_angle_alpha   90.00000000
_cell_angle_beta   90.00000000
_cell_angle_gamma   90.00000000
_symmetry_Int_Tables_number   1
_chemical_formula_structural   Mo
_chemical_formula_sum   Mo16
_cell_volume   193.59779752
_cell_formula_units_Z   16
loop_
 _symmetry_equiv_pos_site_id
 _symmetry_equiv_pos_as_xyz
  1  'x, y, z'
loop_
 _atom_site_type_symbol
 _atom_site_label
 _atom_site_symmetry_multiplicity
 _atom_site_fract_x
 _atom_site_fract_y
 _atom_site_fract_z
 _atom_site_occupancy
  Mo  Mo0  1  0.05047960  -0.03410290  3.60914000  1
  Mo  Mo1  1  1.84630000  1.90024000  0.05722880  1
  Mo  Mo2  1  1.78875000  7.24042000  1.87133000  1
  Mo  Mo3  1  7.18344000  1.90168000  1.82691000  1
  Mo  Mo4  1  3.71264000  -0.02789840  -0.00469621  1
  Mo  Mo5  1  5.49074000  1.79061000  3.68186000  1
  Mo  Mo6  1  5.54447000  7.17368000  1.73950000  1
  Mo  Mo7  1  3.57060000  1.80296000  1.82161000  1
  Mo  Mo8  1  0.00736335  3.55015000  3.65248000  1
  Mo  Mo9  1  1.78525000  5.47586000  -0.02504900  1
  Mo  Mo10  1  1.84372000  3.59956000  1.90530000  1
  Mo  Mo11  1  7.33061000  5.45172000  1.73723000  1
  Mo  Mo12  1  3.55594000  3.63897000  0.01027640  1
  Mo  Mo13  1  5.54691000  5.38993000  3.63235000  1
  Mo  Mo14  1  5.28537000  3.75267000  1.73705000  1
  Mo  Mo15  1  3.68143000  5.61756000  1.85948000  1
