# generated using pymatgen
data_Mo
_symmetry_space_group_name_H-M   'P 1'
_cell_length_a   7.28858920
_cell_length_b   7.28858920
_cell_length_c   3.64429450
_cell_angle_alpha   90.00000000
_cell_angle_beta   90.00000000
_cell_angle_gamma   90.00000000
_symmetry_Int_Tables_number   1
_chemical_formula_structural   Mo
_chemical_formula_sum   Mo16
_cell_volume   193.59779752
_cell_formula_units_Z   16
loop_
 _symmetry_equiv_pos_site_id
 _symmetry_equiv_pos_as_xyz
  1  'x, y, z'
loop_
 _atom_site_type_symbol
 _atom_site_label
 _atom_site_symmetry_multiplicity
 _atom_site_fract_x
 _atom_site_fract_y
 _atom_site_fract_z
 _atom_site_occupancy
  Mo  Mo0  1  -0.09280560  -0.01378470  3.54263000  1
  Mo  Mo1  1  1.83896000  1.86509000  0.03406290  1
  Mo  Mo2  1  1.80916000  7.18920000  1.83741000  1
  Mo  Mo3  1  7.39458000  1.73711000  1.85531000  1
  Mo  Mo4  1  3.51902000  -0.10022400  -0.03187300  1
  Mo  Mo5  1  5.49359000  1.77412000  3.64139000  1
  Mo  Mo6  1  5.26612000  7.28508000  1.71910000  1
  Mo  Mo7  1  3.76008000  1.90190000  1.93830000  1
  Mo  Mo8  1  -0.00003903  3.64052000  3.63308000  1
  Mo  Mo9  1  1.72875000  5.49855000  0.02798890  1
  Mo  Mo10  1  1.86922000  3.66074000  1.82218000  1
  Mo  Mo11  1  7.21065000  5.59071000  1.82657000  1
  Mo  Mo12  1  3.69486000  3.71863000  0.03684110  1
  Mo  Mo13  1  5.50989000  5.51649000  3.56497000  1
  Mo  Mo14  1  5.57184000  3.58772000  1.86689000  1
  Mo  Mo15  1  3.65013000  5.37215000  1.79715000  1
