# generated using pymatgen
data_Mo
_symmetry_space_group_name_H-M   'P 1'
_cell_length_a   7.28858920
_cell_length_b   7.28858920
_cell_length_c   3.64429450
_cell_angle_alpha   90.00000000
_cell_angle_beta   90.00000000
_cell_angle_gamma   90.00000000
_symmetry_Int_Tables_number   1
_chemical_formula_structural   Mo
_chemical_formula_sum   Mo16
_cell_volume   193.59779752
_cell_formula_units_Z   16
loop_
 _symmetry_equiv_pos_site_id
 _symmetry_equiv_pos_as_xyz
  1  'x, y, z'
loop_
 _atom_site_type_symbol
 _atom_site_label
 _atom_site_symmetry_multiplicity
 _atom_site_fract_x
 _atom_site_fract_y
 _atom_site_fract_z
 _atom_site_occupancy
  Mo  Mo0  1  0.01938920  -0.07598340  3.65395000  1
  Mo  Mo1  1  1.79068000  1.82082000  -0.01355240  1
  Mo  Mo2  1  1.81362000  7.38136000  1.79150000  1
  Mo  Mo3  1  7.30862000  1.75818000  1.86649000  1
  Mo  Mo4  1  3.64167000  -0.10726200  -0.04880130  1
  Mo  Mo5  1  5.41157000  1.86073000  3.70785000  1
  Mo  Mo6  1  5.33272000  7.35266000  1.91877000  1
  Mo  Mo7  1  3.66378000  1.85133000  1.87297000  1
  Mo  Mo8  1  0.01116590  3.61957000  3.56339000  1
  Mo  Mo9  1  1.78345000  5.36171000  -0.05655160  1
  Mo  Mo10  1  1.76920000  3.54274000  1.77210000  1
  Mo  Mo11  1  7.20676000  5.62244000  1.82400000  1
  Mo  Mo12  1  3.74956000  3.75700000  0.07201690  1
  Mo  Mo13  1  5.58472000  5.45367000  3.62258000  1
  Mo  Mo14  1  5.54036000  3.64104000  1.81215000  1
  Mo  Mo15  1  3.59674000  5.38401000  1.75315000  1
