# generated using pymatgen
data_Mo
_symmetry_space_group_name_H-M   'P 1'
_cell_length_a   7.28858920
_cell_length_b   7.28858920
_cell_length_c   3.64429450
_cell_angle_alpha   90.00000000
_cell_angle_beta   90.00000000
_cell_angle_gamma   90.00000000
_symmetry_Int_Tables_number   1
_chemical_formula_structural   Mo
_chemical_formula_sum   Mo16
_cell_volume   193.59779752
_cell_formula_units_Z   16
loop_
 _symmetry_equiv_pos_site_id
 _symmetry_equiv_pos_as_xyz
  1  'x, y, z'
loop_
 _atom_site_type_symbol
 _atom_site_label
 _atom_site_symmetry_multiplicity
 _atom_site_fract_x
 _atom_site_fract_y
 _atom_site_fract_z
 _atom_site_occupancy
  Mo  Mo0  1  -0.06306610  0.05738570  3.70039000  1
  Mo  Mo1  1  1.84670000  1.80562000  -0.03082730  1
  Mo  Mo2  1  1.84148000  7.25381000  1.73329000  1
  Mo  Mo3  1  7.29529000  1.79200000  1.82263000  1
  Mo  Mo4  1  3.59753000  0.04287730  -0.00909278  1
  Mo  Mo5  1  5.44804000  1.77896000  3.75329000  1
  Mo  Mo6  1  5.38040000  7.32743000  1.79126000  1
  Mo  Mo7  1  3.70370000  1.81317000  1.82937000  1
  Mo  Mo8  1  0.02159920  3.59727000  3.62551000  1
  Mo  Mo9  1  1.73891000  5.49586000  -0.06513300  1
  Mo  Mo10  1  1.95140000  3.50079000  1.82181000  1
  Mo  Mo11  1  7.34059000  5.44550000  1.81684000  1
  Mo  Mo12  1  3.62493000  3.69352000  0.05743340  1
  Mo  Mo13  1  5.33060000  5.58569000  3.66155000  1
  Mo  Mo14  1  5.47408000  3.58984000  1.82270000  1
  Mo  Mo15  1  3.69184000  5.44427000  1.78098000  1
