# generated using pymatgen
data_Mo
_symmetry_space_group_name_H-M   'P 1'
_cell_length_a   7.28858920
_cell_length_b   7.28858920
_cell_length_c   3.64429450
_cell_angle_alpha   90.00000000
_cell_angle_beta   90.00000000
_cell_angle_gamma   90.00000000
_symmetry_Int_Tables_number   1
_chemical_formula_structural   Mo
_chemical_formula_sum   Mo16
_cell_volume   193.59779752
_cell_formula_units_Z   16
loop_
 _symmetry_equiv_pos_site_id
 _symmetry_equiv_pos_as_xyz
  1  'x, y, z'
loop_
 _atom_site_type_symbol
 _atom_site_label
 _atom_site_symmetry_multiplicity
 _atom_site_fract_x
 _atom_site_fract_y
 _atom_site_fract_z
 _atom_site_occupancy
  Mo  Mo0  1  -0.08735890  -0.04023800  3.60801000  1
  Mo  Mo1  1  1.71371000  1.69543000  -0.00093023  1
  Mo  Mo2  1  1.69545000  7.44281000  1.85759000  1
  Mo  Mo3  1  7.35932000  1.93287000  1.83492000  1
  Mo  Mo4  1  3.69597000  0.05137870  0.02435800  1
  Mo  Mo5  1  5.49564000  1.79446000  3.68407000  1
  Mo  Mo6  1  5.57350000  7.30406000  1.73454000  1
  Mo  Mo7  1  3.75055000  1.72552000  1.80246000  1
  Mo  Mo8  1  -0.03734260  3.67844000  3.65108000  1
  Mo  Mo9  1  1.81495000  5.40453000  -0.04224920  1
  Mo  Mo10  1  1.89158000  3.66580000  1.72502000  1
  Mo  Mo11  1  7.32341000  5.38091000  1.76800000  1
  Mo  Mo12  1  3.57816000  3.62604000  0.03093860  1
  Mo  Mo13  1  5.48202000  5.47231000  3.71238000  1
  Mo  Mo14  1  5.39860000  3.55444000  1.85352000  1
  Mo  Mo15  1  3.57583000  5.53523000  1.86829000  1
