# generated using pymatgen
data_Mo
_symmetry_space_group_name_H-M   'P 1'
_cell_length_a   7.27806742
_cell_length_b   7.27806742
_cell_length_c   3.63903379
_cell_angle_alpha   90.00000000
_cell_angle_beta   90.00000000
_cell_angle_gamma   90.00000000
_symmetry_Int_Tables_number   1
_chemical_formula_structural   Mo
_chemical_formula_sum   Mo16
_cell_volume   192.76058556
_cell_formula_units_Z   16
loop_
 _symmetry_equiv_pos_site_id
 _symmetry_equiv_pos_as_xyz
  1  'x, y, z'
loop_
 _atom_site_type_symbol
 _atom_site_label
 _atom_site_symmetry_multiplicity
 _atom_site_fract_x
 _atom_site_fract_y
 _atom_site_fract_z
 _atom_site_occupancy
  Mo  Mo0  1  -0.00225262  7.26989000  3.63605000  1
  Mo  Mo1  1  1.82183000  1.83415000  -0.01737380  1
  Mo  Mo2  1  1.83191000  7.28886000  1.79773000  1
  Mo  Mo3  1  7.26633000  1.81202000  1.82455000  1
  Mo  Mo4  1  3.63713000  7.26001000  -0.00807654  1
  Mo  Mo5  1  5.44574000  1.83853000  -0.01210320  1
  Mo  Mo6  1  5.44500000  -0.00466331  1.80478000  1
  Mo  Mo7  1  3.63499000  1.81828000  1.82527000  1
  Mo  Mo8  1  7.29752000  3.64854000  3.65775000  1
  Mo  Mo9  1  1.80390000  5.45109000  3.64169000  1
  Mo  Mo10  1  1.84117000  3.62015000  1.85398000  1
  Mo  Mo11  1  -0.01718340  5.44606000  1.82375000  1
  Mo  Mo12  1  3.62953000  3.64241000  3.62684000  1
  Mo  Mo13  1  5.45705000  5.46888000  3.64893000  1
  Mo  Mo14  1  5.46383000  3.64307000  1.82454000  1
  Mo  Mo15  1  3.66751000  5.46479000  1.82273000  1
