# generated using pymatgen
data_Mo
_symmetry_space_group_name_H-M   'P 1'
_cell_length_a   7.28858920
_cell_length_b   7.28858920
_cell_length_c   3.64429450
_cell_angle_alpha   90.00000000
_cell_angle_beta   90.00000000
_cell_angle_gamma   90.00000000
_symmetry_Int_Tables_number   1
_chemical_formula_structural   Mo
_chemical_formula_sum   Mo16
_cell_volume   193.59779752
_cell_formula_units_Z   16
loop_
 _symmetry_equiv_pos_site_id
 _symmetry_equiv_pos_as_xyz
  1  'x, y, z'
loop_
 _atom_site_type_symbol
 _atom_site_label
 _atom_site_symmetry_multiplicity
 _atom_site_fract_x
 _atom_site_fract_y
 _atom_site_fract_z
 _atom_site_occupancy
  Mo  Mo0  1  -0.06104160  0.15736800  3.67033000  1
  Mo  Mo1  1  1.85974000  1.83065000  0.03999760  1
  Mo  Mo2  1  1.85682000  7.19443000  1.78687000  1
  Mo  Mo3  1  7.25523000  1.76119000  1.86958000  1
  Mo  Mo4  1  3.57636000  -0.04865190  0.02271150  1
  Mo  Mo5  1  5.47854000  1.78546000  3.67590000  1
  Mo  Mo6  1  5.48919000  7.14792000  1.85819000  1
  Mo  Mo7  1  3.63197000  1.94642000  1.84932000  1
  Mo  Mo8  1  -0.02956980  3.58182000  3.66239000  1
  Mo  Mo9  1  1.72711000  5.48304000  -0.08644740  1
  Mo  Mo10  1  1.74488000  3.62171000  1.85127000  1
  Mo  Mo11  1  7.32148000  5.46976000  1.80794000  1
  Mo  Mo12  1  3.60733000  3.66825000  -0.07527840  1
  Mo  Mo13  1  5.44754000  5.53962000  3.62822000  1
  Mo  Mo14  1  5.58871000  3.76014000  1.80320000  1
  Mo  Mo15  1  3.72972000  5.32488000  1.74781000  1
