# generated using pymatgen
data_Mo
_symmetry_space_group_name_H-M   'P 1'
_cell_length_a   7.28858920
_cell_length_b   7.28858920
_cell_length_c   3.64429450
_cell_angle_alpha   90.00000000
_cell_angle_beta   90.00000000
_cell_angle_gamma   90.00000000
_symmetry_Int_Tables_number   1
_chemical_formula_structural   Mo
_chemical_formula_sum   Mo16
_cell_volume   193.59779752
_cell_formula_units_Z   16
loop_
 _symmetry_equiv_pos_site_id
 _symmetry_equiv_pos_as_xyz
  1  'x, y, z'
loop_
 _atom_site_type_symbol
 _atom_site_label
 _atom_site_symmetry_multiplicity
 _atom_site_fract_x
 _atom_site_fract_y
 _atom_site_fract_z
 _atom_site_occupancy
  Mo  Mo0  1  -0.00145847  0.11606800  3.68271000  1
  Mo  Mo1  1  1.87991000  1.85938000  0.02688590  1
  Mo  Mo2  1  1.92996000  7.24496000  1.75720000  1
  Mo  Mo3  1  7.30756000  1.72935000  1.71231000  1
  Mo  Mo4  1  3.62609000  -0.00183377  0.00184976  1
  Mo  Mo5  1  5.45461000  1.74427000  3.59094000  1
  Mo  Mo6  1  5.39398000  7.27205000  1.81580000  1
  Mo  Mo7  1  3.61510000  1.87311000  1.78663000  1
  Mo  Mo8  1  0.02395760  3.58159000  3.67460000  1
  Mo  Mo9  1  1.77601000  5.50124000  0.04996610  1
  Mo  Mo10  1  1.78697000  3.66406000  1.88285000  1
  Mo  Mo11  1  7.32425000  5.47360000  1.80131000  1
  Mo  Mo12  1  3.59583000  3.62116000  -0.00562876  1
  Mo  Mo13  1  5.37434000  5.49796000  3.67755000  1
  Mo  Mo14  1  5.39367000  3.61036000  1.81001000  1
  Mo  Mo15  1  3.74322000  5.43667000  1.84702000  1
