# generated using pymatgen
data_Mo
_symmetry_space_group_name_H-M   'P 1'
_cell_length_a   7.28858920
_cell_length_b   7.28858920
_cell_length_c   3.64429450
_cell_angle_alpha   90.00000000
_cell_angle_beta   90.00000000
_cell_angle_gamma   90.00000000
_symmetry_Int_Tables_number   1
_chemical_formula_structural   Mo
_chemical_formula_sum   Mo16
_cell_volume   193.59779752
_cell_formula_units_Z   16
loop_
 _symmetry_equiv_pos_site_id
 _symmetry_equiv_pos_as_xyz
  1  'x, y, z'
loop_
 _atom_site_type_symbol
 _atom_site_label
 _atom_site_symmetry_multiplicity
 _atom_site_fract_x
 _atom_site_fract_y
 _atom_site_fract_z
 _atom_site_occupancy
  Mo  Mo0  1  0.03005330  -0.06363300  3.63402000  1
  Mo  Mo1  1  1.86617000  1.82810000  -0.06333360  1
  Mo  Mo2  1  1.86437000  7.34491000  1.86107000  1
  Mo  Mo3  1  7.37132000  1.79468000  1.79381000  1
  Mo  Mo4  1  3.70874000  -0.04795740  -0.05215570  1
  Mo  Mo5  1  5.38394000  1.77864000  3.60157000  1
  Mo  Mo6  1  5.47490000  7.27650000  1.77504000  1
  Mo  Mo7  1  3.56838000  1.86354000  1.81603000  1
  Mo  Mo8  1  -0.02769250  3.56837000  3.57105000  1
  Mo  Mo9  1  1.91801000  5.48510000  0.07420440  1
  Mo  Mo10  1  1.82865000  3.67449000  1.81197000  1
  Mo  Mo11  1  7.16010000  5.54317000  1.90795000  1
  Mo  Mo12  1  3.57541000  3.70740000  0.11032700  1
  Mo  Mo13  1  5.46070000  5.43989000  3.63187000  1
  Mo  Mo14  1  5.45281000  3.58092000  1.79310000  1
  Mo  Mo15  1  3.58813000  5.44989000  1.84547000  1
