# generated using pymatgen
data_Mo
_symmetry_space_group_name_H-M   'P 1'
_cell_length_a   7.28858920
_cell_length_b   7.28858920
_cell_length_c   3.64429450
_cell_angle_alpha   90.00000000
_cell_angle_beta   90.00000000
_cell_angle_gamma   90.00000000
_symmetry_Int_Tables_number   1
_chemical_formula_structural   Mo
_chemical_formula_sum   Mo16
_cell_volume   193.59779752
_cell_formula_units_Z   16
loop_
 _symmetry_equiv_pos_site_id
 _symmetry_equiv_pos_as_xyz
  1  'x, y, z'
loop_
 _atom_site_type_symbol
 _atom_site_label
 _atom_site_symmetry_multiplicity
 _atom_site_fract_x
 _atom_site_fract_y
 _atom_site_fract_z
 _atom_site_occupancy
  Mo  Mo0  1  -0.03619950  0.13362500  3.71386000  1
  Mo  Mo1  1  1.93576000  1.77567000  0.00538279  1
  Mo  Mo2  1  1.88051000  7.15978000  1.81578000  1
  Mo  Mo3  1  7.24878000  1.74803000  1.81435000  1
  Mo  Mo4  1  3.53560000  0.04335100  -0.00046352  1
  Mo  Mo5  1  5.40380000  1.82204000  3.73455000  1
  Mo  Mo6  1  5.38295000  7.28758000  1.76692000  1
  Mo  Mo7  1  3.62471000  1.91239000  1.85074000  1
  Mo  Mo8  1  -0.03509490  3.59543000  3.64932000  1
  Mo  Mo9  1  1.72309000  5.49746000  -0.02961220  1
  Mo  Mo10  1  1.78536000  3.64765000  1.75287000  1
  Mo  Mo11  1  7.34319000  5.45057000  1.74202000  1
  Mo  Mo12  1  3.69028000  3.56315000  -0.00590977  1
  Mo  Mo13  1  5.45304000  5.52488000  3.60968000  1
  Mo  Mo14  1  5.57053000  3.66094000  1.89521000  1
  Mo  Mo15  1  3.71770000  5.40145000  1.79729000  1
