# generated using pymatgen
data_Mo
_symmetry_space_group_name_H-M   'P 1'
_cell_length_a   7.28858920
_cell_length_b   7.28858920
_cell_length_c   3.64429450
_cell_angle_alpha   90.00000000
_cell_angle_beta   90.00000000
_cell_angle_gamma   90.00000000
_symmetry_Int_Tables_number   1
_chemical_formula_structural   Mo
_chemical_formula_sum   Mo16
_cell_volume   193.59779752
_cell_formula_units_Z   16
loop_
 _symmetry_equiv_pos_site_id
 _symmetry_equiv_pos_as_xyz
  1  'x, y, z'
loop_
 _atom_site_type_symbol
 _atom_site_label
 _atom_site_symmetry_multiplicity
 _atom_site_fract_x
 _atom_site_fract_y
 _atom_site_fract_z
 _atom_site_occupancy
  Mo  Mo0  1  -0.00010320  -0.03212930  3.58403000  1
  Mo  Mo1  1  1.77275000  1.80544000  -0.00493480  1
  Mo  Mo2  1  1.91686000  7.19994000  1.79416000  1
  Mo  Mo3  1  7.30784000  1.89295000  1.78183000  1
  Mo  Mo4  1  3.60758000  0.08384200  0.02947600  1
  Mo  Mo5  1  5.39309000  1.83847000  3.72800000  1
  Mo  Mo6  1  5.45560000  7.14927000  1.78011000  1
  Mo  Mo7  1  3.72085000  1.83516000  1.86283000  1
  Mo  Mo8  1  -0.00904252  3.63606000  3.62918000  1
  Mo  Mo9  1  1.80361000  5.54220000  0.01324980  1
  Mo  Mo10  1  1.88291000  3.72859000  1.75077000  1
  Mo  Mo11  1  7.29523000  5.42035000  1.83156000  1
  Mo  Mo12  1  3.64275000  3.61908000  0.09927560  1
  Mo  Mo13  1  5.41832000  5.45130000  3.61202000  1
  Mo  Mo14  1  5.52232000  3.69802000  1.82236000  1
  Mo  Mo15  1  3.49343000  5.35545000  1.79808000  1
