# generated using pymatgen
data_Mo
_symmetry_space_group_name_H-M   'P 1'
_cell_length_a   7.28858920
_cell_length_b   7.28858920
_cell_length_c   3.64429450
_cell_angle_alpha   90.00000000
_cell_angle_beta   90.00000000
_cell_angle_gamma   90.00000000
_symmetry_Int_Tables_number   1
_chemical_formula_structural   Mo
_chemical_formula_sum   Mo16
_cell_volume   193.59779752
_cell_formula_units_Z   16
loop_
 _symmetry_equiv_pos_site_id
 _symmetry_equiv_pos_as_xyz
  1  'x, y, z'
loop_
 _atom_site_type_symbol
 _atom_site_label
 _atom_site_symmetry_multiplicity
 _atom_site_fract_x
 _atom_site_fract_y
 _atom_site_fract_z
 _atom_site_occupancy
  Mo  Mo0  1  -0.00809949  -0.02622230  3.68164000  1
  Mo  Mo1  1  1.74849000  1.84827000  0.00046396  1
  Mo  Mo2  1  1.71059000  7.22741000  1.81832000  1
  Mo  Mo3  1  7.30235000  1.89301000  1.69661000  1
  Mo  Mo4  1  3.67218000  0.03826810  0.00554294  1
  Mo  Mo5  1  5.53809000  1.81845000  3.54545000  1
  Mo  Mo6  1  5.54458000  7.24507000  1.91227000  1
  Mo  Mo7  1  3.65402000  1.80524000  1.78676000  1
  Mo  Mo8  1  0.03817190  3.66407000  3.61112000  1
  Mo  Mo9  1  1.90641000  5.38771000  0.11279400  1
  Mo  Mo10  1  1.78645000  3.74911000  1.79423000  1
  Mo  Mo11  1  7.21064000  5.45785000  1.89849000  1
  Mo  Mo12  1  3.66281000  3.44611000  -0.03197740  1
  Mo  Mo13  1  5.46095000  5.47458000  3.70719000  1
  Mo  Mo14  1  5.42811000  3.70304000  1.77317000  1
  Mo  Mo15  1  3.56826000  5.49203000  1.79993000  1
