# generated using pymatgen
data_Mo
_symmetry_space_group_name_H-M   'P 1'
_cell_length_a   7.28858920
_cell_length_b   7.28858920
_cell_length_c   3.64429450
_cell_angle_alpha   90.00000000
_cell_angle_beta   90.00000000
_cell_angle_gamma   90.00000000
_symmetry_Int_Tables_number   1
_chemical_formula_structural   Mo
_chemical_formula_sum   Mo16
_cell_volume   193.59779752
_cell_formula_units_Z   16
loop_
 _symmetry_equiv_pos_site_id
 _symmetry_equiv_pos_as_xyz
  1  'x, y, z'
loop_
 _atom_site_type_symbol
 _atom_site_label
 _atom_site_symmetry_multiplicity
 _atom_site_fract_x
 _atom_site_fract_y
 _atom_site_fract_z
 _atom_site_occupancy
  Mo  Mo0  1  -0.06532090  -0.09788180  3.71452000  1
  Mo  Mo1  1  1.77243000  1.78888000  0.00056147  1
  Mo  Mo2  1  1.91236000  7.42570000  1.81844000  1
  Mo  Mo3  1  7.31818000  1.67522000  1.76406000  1
  Mo  Mo4  1  3.63858000  0.05623640  0.01769370  1
  Mo  Mo5  1  5.39454000  1.80726000  3.57252000  1
  Mo  Mo6  1  5.52640000  7.23276000  1.82880000  1
  Mo  Mo7  1  3.62392000  1.88503000  1.78848000  1
  Mo  Mo8  1  0.02249550  3.68585000  3.64966000  1
  Mo  Mo9  1  1.85376000  5.52838000  0.07014250  1
  Mo  Mo10  1  1.78032000  3.62584000  1.71186000  1
  Mo  Mo11  1  7.20300000  5.43208000  1.88874000  1
  Mo  Mo12  1  3.61244000  3.67785000  -0.01670360  1
  Mo  Mo13  1  5.42842000  5.53471000  3.67700000  1
  Mo  Mo14  1  5.58054000  3.58475000  1.85887000  1
  Mo  Mo15  1  3.62192000  5.38134000  1.76736000  1
