# generated using pymatgen
data_Mo
_symmetry_space_group_name_H-M   'P 1'
_cell_length_a   7.28858920
_cell_length_b   7.28858920
_cell_length_c   3.64429450
_cell_angle_alpha   90.00000000
_cell_angle_beta   90.00000000
_cell_angle_gamma   90.00000000
_symmetry_Int_Tables_number   1
_chemical_formula_structural   Mo
_chemical_formula_sum   Mo16
_cell_volume   193.59779752
_cell_formula_units_Z   16
loop_
 _symmetry_equiv_pos_site_id
 _symmetry_equiv_pos_as_xyz
  1  'x, y, z'
loop_
 _atom_site_type_symbol
 _atom_site_label
 _atom_site_symmetry_multiplicity
 _atom_site_fract_x
 _atom_site_fract_y
 _atom_site_fract_z
 _atom_site_occupancy
  Mo  Mo0  1  0.00556786  0.01858800  3.60056000  1
  Mo  Mo1  1  1.71542000  1.76268000  0.10569500  1
  Mo  Mo2  1  2.00715000  7.28419000  1.79910000  1
  Mo  Mo3  1  7.26112000  1.71729000  1.84835000  1
  Mo  Mo4  1  3.66477000  -0.00270952  0.03417420  1
  Mo  Mo5  1  5.45932000  1.83314000  3.62186000  1
  Mo  Mo6  1  5.51404000  7.38509000  1.80120000  1
  Mo  Mo7  1  3.66924000  1.84830000  1.81617000  1
  Mo  Mo8  1  -0.04019770  3.67421000  3.65960000  1
  Mo  Mo9  1  1.90621000  5.53302000  0.06100310  1
  Mo  Mo10  1  1.69803000  3.64425000  1.88347000  1
  Mo  Mo11  1  7.25275000  5.50708000  1.67700000  1
  Mo  Mo12  1  3.60635000  3.58824000  0.05918710  1
  Mo  Mo13  1  5.36915000  5.57361000  3.52557000  1
  Mo  Mo14  1  5.55845000  3.52575000  1.79299000  1
  Mo  Mo15  1  3.57661000  5.33127000  1.82608000  1
