# generated using pymatgen
data_Mo
_symmetry_space_group_name_H-M   'P 1'
_cell_length_a   7.28858920
_cell_length_b   7.28858920
_cell_length_c   3.64429450
_cell_angle_alpha   90.00000000
_cell_angle_beta   90.00000000
_cell_angle_gamma   90.00000000
_symmetry_Int_Tables_number   1
_chemical_formula_structural   Mo
_chemical_formula_sum   Mo16
_cell_volume   193.59779752
_cell_formula_units_Z   16
loop_
 _symmetry_equiv_pos_site_id
 _symmetry_equiv_pos_as_xyz
  1  'x, y, z'
loop_
 _atom_site_type_symbol
 _atom_site_label
 _atom_site_symmetry_multiplicity
 _atom_site_fract_x
 _atom_site_fract_y
 _atom_site_fract_z
 _atom_site_occupancy
  Mo  Mo0  1  -0.08441920  -0.00015636  3.63439000  1
  Mo  Mo1  1  1.77417000  1.70021000  -0.03672340  1
  Mo  Mo2  1  1.79673000  7.31612000  1.69011000  1
  Mo  Mo3  1  7.27328000  1.81301000  1.85907000  1
  Mo  Mo4  1  3.55528000  -0.06882700  0.00225280  1
  Mo  Mo5  1  5.34974000  1.90238000  3.63704000  1
  Mo  Mo6  1  5.48723000  7.28766000  1.92205000  1
  Mo  Mo7  1  3.68657000  1.73773000  1.76652000  1
  Mo  Mo8  1  0.04207560  3.74319000  3.67971000  1
  Mo  Mo9  1  1.85274000  5.45493000  0.03902780  1
  Mo  Mo10  1  1.84071000  3.64086000  1.79072000  1
  Mo  Mo11  1  7.30631000  5.42753000  1.75819000  1
  Mo  Mo12  1  3.69846000  3.70997000  -0.00038176  1
  Mo  Mo13  1  5.45500000  5.53428000  3.65387000  1
  Mo  Mo14  1  5.61177000  3.63790000  1.85416000  1
  Mo  Mo15  1  3.57836000  5.38723000  1.86200000  1
