# generated using pymatgen
data_Mo
_symmetry_space_group_name_H-M   'P 1'
_cell_length_a   7.27806742
_cell_length_b   7.27806742
_cell_length_c   3.63903379
_cell_angle_alpha   90.00000000
_cell_angle_beta   90.00000000
_cell_angle_gamma   90.00000000
_symmetry_Int_Tables_number   1
_chemical_formula_structural   Mo
_chemical_formula_sum   Mo16
_cell_volume   192.76058556
_cell_formula_units_Z   16
loop_
 _symmetry_equiv_pos_site_id
 _symmetry_equiv_pos_as_xyz
  1  'x, y, z'
loop_
 _atom_site_type_symbol
 _atom_site_label
 _atom_site_symmetry_multiplicity
 _atom_site_fract_x
 _atom_site_fract_y
 _atom_site_fract_z
 _atom_site_occupancy
  Mo  Mo0  1  0.01844260  7.26671000  3.61962000  1
  Mo  Mo1  1  1.84442000  1.83278000  0.00345466  1
  Mo  Mo2  1  1.83747000  7.28147000  1.83152000  1
  Mo  Mo3  1  7.28599000  1.82880000  1.81722000  1
  Mo  Mo4  1  3.63799000  7.27263000  0.00490756  1
  Mo  Mo5  1  5.47434000  1.80144000  -0.01374060  1
  Mo  Mo6  1  5.43603000  -0.01394630  1.84847000  1
  Mo  Mo7  1  3.63664000  1.83458000  1.80862000  1
  Mo  Mo8  1  7.26654000  3.63521000  3.63315000  1
  Mo  Mo9  1  1.79764000  5.46666000  3.63780000  1
  Mo  Mo10  1  1.82042000  3.63617000  1.80023000  1
  Mo  Mo11  1  -0.01317340  5.46103000  1.83243000  1
  Mo  Mo12  1  3.61643000  3.63980000  3.65359000  1
  Mo  Mo13  1  5.47585000  5.45893000  3.62893000  1
  Mo  Mo14  1  5.42354000  3.64515000  1.84037000  1
  Mo  Mo15  1  3.66543000  5.45465000  1.80447000  1
