# generated using pymatgen
data_Mo
_symmetry_space_group_name_H-M   'P 1'
_cell_length_a   7.28858920
_cell_length_b   7.28858920
_cell_length_c   3.64429450
_cell_angle_alpha   90.00000000
_cell_angle_beta   90.00000000
_cell_angle_gamma   90.00000000
_symmetry_Int_Tables_number   1
_chemical_formula_structural   Mo
_chemical_formula_sum   Mo16
_cell_volume   193.59779752
_cell_formula_units_Z   16
loop_
 _symmetry_equiv_pos_site_id
 _symmetry_equiv_pos_as_xyz
  1  'x, y, z'
loop_
 _atom_site_type_symbol
 _atom_site_label
 _atom_site_symmetry_multiplicity
 _atom_site_fract_x
 _atom_site_fract_y
 _atom_site_fract_z
 _atom_site_occupancy
  Mo  Mo0  1  -0.02771540  0.01371480  3.59694000  1
  Mo  Mo1  1  1.82418000  1.83634000  0.03257210  1
  Mo  Mo2  1  1.74092000  7.28243000  1.65322000  1
  Mo  Mo3  1  7.39888000  1.90342000  1.86151000  1
  Mo  Mo4  1  3.53538000  0.07244460  -0.03407010  1
  Mo  Mo5  1  5.49464000  1.80511000  3.66289000  1
  Mo  Mo6  1  5.44280000  7.28766000  1.89218000  1
  Mo  Mo7  1  3.71762000  1.76035000  1.80275000  1
  Mo  Mo8  1  0.00414564  3.60489000  3.65550000  1
  Mo  Mo9  1  1.87078000  5.42359000  0.02582240  1
  Mo  Mo10  1  1.85079000  3.69221000  1.82263000  1
  Mo  Mo11  1  7.24047000  5.44152000  1.72910000  1
  Mo  Mo12  1  3.54079000  3.58984000  0.04406690  1
  Mo  Mo13  1  5.45965000  5.45016000  3.65999000  1
  Mo  Mo14  1  5.42194000  3.57663000  1.80990000  1
  Mo  Mo15  1  3.70874000  5.48369000  1.89697000  1
