# generated using pymatgen
data_Mo
_symmetry_space_group_name_H-M   'P 1'
_cell_length_a   7.28858920
_cell_length_b   7.28858920
_cell_length_c   3.64429450
_cell_angle_alpha   90.00000000
_cell_angle_beta   90.00000000
_cell_angle_gamma   90.00000000
_symmetry_Int_Tables_number   1
_chemical_formula_structural   Mo
_chemical_formula_sum   Mo16
_cell_volume   193.59779752
_cell_formula_units_Z   16
loop_
 _symmetry_equiv_pos_site_id
 _symmetry_equiv_pos_as_xyz
  1  'x, y, z'
loop_
 _atom_site_type_symbol
 _atom_site_label
 _atom_site_symmetry_multiplicity
 _atom_site_fract_x
 _atom_site_fract_y
 _atom_site_fract_z
 _atom_site_occupancy
  Mo  Mo0  1  -0.03742450  -0.00607750  3.63909000  1
  Mo  Mo1  1  1.66021000  1.86941000  -0.07264700  1
  Mo  Mo2  1  1.81218000  7.30670000  1.79341000  1
  Mo  Mo3  1  7.15881000  1.77372000  1.85687000  1
  Mo  Mo4  1  3.74841000  0.01829420  0.00354392  1
  Mo  Mo5  1  5.52607000  1.80167000  3.65123000  1
  Mo  Mo6  1  5.48995000  7.29807000  1.87506000  1
  Mo  Mo7  1  3.58677000  1.82308000  1.74205000  1
  Mo  Mo8  1  0.04683600  3.72657000  3.65313000  1
  Mo  Mo9  1  1.76126000  5.48431000  -0.10291200  1
  Mo  Mo10  1  1.81707000  3.52298000  1.92131000  1
  Mo  Mo11  1  7.38561000  5.47663000  1.78625000  1
  Mo  Mo12  1  3.73316000  3.54940000  -0.01800320  1
  Mo  Mo13  1  5.47137000  5.45756000  3.68105000  1
  Mo  Mo14  1  5.50301000  3.68526000  1.82122000  1
  Mo  Mo15  1  3.56068000  5.43642000  1.88135000  1
