# generated using pymatgen
data_Mo
_symmetry_space_group_name_H-M   'P 1'
_cell_length_a   7.28858920
_cell_length_b   7.28858920
_cell_length_c   3.64429450
_cell_angle_alpha   90.00000000
_cell_angle_beta   90.00000000
_cell_angle_gamma   90.00000000
_symmetry_Int_Tables_number   1
_chemical_formula_structural   Mo
_chemical_formula_sum   Mo16
_cell_volume   193.59779752
_cell_formula_units_Z   16
loop_
 _symmetry_equiv_pos_site_id
 _symmetry_equiv_pos_as_xyz
  1  'x, y, z'
loop_
 _atom_site_type_symbol
 _atom_site_label
 _atom_site_symmetry_multiplicity
 _atom_site_fract_x
 _atom_site_fract_y
 _atom_site_fract_z
 _atom_site_occupancy
  Mo  Mo0  1  0.04653880  0.00781330  3.71546000  1
  Mo  Mo1  1  1.86637000  1.78045000  -0.09723380  1
  Mo  Mo2  1  1.73307000  7.17316000  1.88250000  1
  Mo  Mo3  1  7.23196000  1.88617000  1.88090000  1
  Mo  Mo4  1  3.63296000  0.07501090  -0.03655200  1
  Mo  Mo5  1  5.47086000  1.70961000  3.66039000  1
  Mo  Mo6  1  5.50456000  7.22202000  1.80899000  1
  Mo  Mo7  1  3.57531000  1.86000000  1.82173000  1
  Mo  Mo8  1  0.00046758  3.59547000  3.60659000  1
  Mo  Mo9  1  1.88917000  5.42125000  0.03829730  1
  Mo  Mo10  1  1.86555000  3.73401000  1.82592000  1
  Mo  Mo11  1  7.29760000  5.36471000  1.90938000  1
  Mo  Mo12  1  3.64801000  3.58121000  -0.14619200  1
  Mo  Mo13  1  5.46504000  5.52291000  3.65530000  1
  Mo  Mo14  1  5.33124000  3.77506000  1.82210000  1
  Mo  Mo15  1  3.66530000  5.51515000  1.76440000  1
