# generated using pymatgen
data_Mo
_symmetry_space_group_name_H-M   'P 1'
_cell_length_a   7.28858920
_cell_length_b   7.28858920
_cell_length_c   3.64429450
_cell_angle_alpha   90.00000000
_cell_angle_beta   90.00000000
_cell_angle_gamma   90.00000000
_symmetry_Int_Tables_number   1
_chemical_formula_structural   Mo
_chemical_formula_sum   Mo16
_cell_volume   193.59779752
_cell_formula_units_Z   16
loop_
 _symmetry_equiv_pos_site_id
 _symmetry_equiv_pos_as_xyz
  1  'x, y, z'
loop_
 _atom_site_type_symbol
 _atom_site_label
 _atom_site_symmetry_multiplicity
 _atom_site_fract_x
 _atom_site_fract_y
 _atom_site_fract_z
 _atom_site_occupancy
  Mo  Mo0  1  0.03802260  -0.09819090  3.67259000  1
  Mo  Mo1  1  1.76671000  1.82072000  0.02664490  1
  Mo  Mo2  1  1.86613000  7.27467000  1.82046000  1
  Mo  Mo3  1  7.14556000  1.82683000  1.85110000  1
  Mo  Mo4  1  3.72359000  -0.04057150  0.04134960  1
  Mo  Mo5  1  5.46881000  1.82708000  3.67765000  1
  Mo  Mo6  1  5.55895000  7.25212000  1.82853000  1
  Mo  Mo7  1  3.58233000  1.81004000  1.74708000  1
  Mo  Mo8  1  -0.00768022  3.72298000  3.67571000  1
  Mo  Mo9  1  1.83050000  5.54178000  -0.04163100  1
  Mo  Mo10  1  1.93821000  3.57843000  1.94744000  1
  Mo  Mo11  1  7.37366000  5.40393000  1.73040000  1
  Mo  Mo12  1  3.68463000  3.63461000  0.01068620  1
  Mo  Mo13  1  5.40827000  5.43986000  3.62568000  1
  Mo  Mo14  1  5.31089000  3.69020000  1.68823000  1
  Mo  Mo15  1  3.53542000  5.53952000  1.81007000  1
