# generated using pymatgen
data_Mo
_symmetry_space_group_name_H-M   'P 1'
_cell_length_a   7.28858920
_cell_length_b   7.28858920
_cell_length_c   3.64429450
_cell_angle_alpha   90.00000000
_cell_angle_beta   90.00000000
_cell_angle_gamma   90.00000000
_symmetry_Int_Tables_number   1
_chemical_formula_structural   Mo
_chemical_formula_sum   Mo16
_cell_volume   193.59779752
_cell_formula_units_Z   16
loop_
 _symmetry_equiv_pos_site_id
 _symmetry_equiv_pos_as_xyz
  1  'x, y, z'
loop_
 _atom_site_type_symbol
 _atom_site_label
 _atom_site_symmetry_multiplicity
 _atom_site_fract_x
 _atom_site_fract_y
 _atom_site_fract_z
 _atom_site_occupancy
  Mo  Mo0  1  -0.01988300  -0.11110900  3.67777000  1
  Mo  Mo1  1  1.91519000  1.81687000  -0.02254360  1
  Mo  Mo2  1  1.71783000  7.35721000  1.77773000  1
  Mo  Mo3  1  7.22508000  1.78972000  1.77956000  1
  Mo  Mo4  1  3.60586000  -0.10917200  -0.08045800  1
  Mo  Mo5  1  5.54097000  1.89952000  3.68347000  1
  Mo  Mo6  1  5.37765000  7.30185000  1.78133000  1
  Mo  Mo7  1  3.61940000  1.82936000  1.89998000  1
  Mo  Mo8  1  0.06028370  3.77032000  3.62401000  1
  Mo  Mo9  1  1.86654000  5.42710000  -0.01481080  1
  Mo  Mo10  1  1.81915000  3.58795000  1.83643000  1
  Mo  Mo11  1  7.33877000  5.46761000  1.75373000  1
  Mo  Mo12  1  3.65311000  3.65796000  0.03419870  1
  Mo  Mo13  1  5.43411000  5.33330000  3.63552000  1
  Mo  Mo14  1  5.40795000  3.64460000  1.93688000  1
  Mo  Mo15  1  3.66198000  5.56090000  1.80921000  1
