# generated using pymatgen
data_Mo
_symmetry_space_group_name_H-M   'P 1'
_cell_length_a   7.28858920
_cell_length_b   7.28858920
_cell_length_c   3.64429450
_cell_angle_alpha   90.00000000
_cell_angle_beta   90.00000000
_cell_angle_gamma   90.00000000
_symmetry_Int_Tables_number   1
_chemical_formula_structural   Mo
_chemical_formula_sum   Mo16
_cell_volume   193.59779752
_cell_formula_units_Z   16
loop_
 _symmetry_equiv_pos_site_id
 _symmetry_equiv_pos_as_xyz
  1  'x, y, z'
loop_
 _atom_site_type_symbol
 _atom_site_label
 _atom_site_symmetry_multiplicity
 _atom_site_fract_x
 _atom_site_fract_y
 _atom_site_fract_z
 _atom_site_occupancy
  Mo  Mo0  1  0.00693235  0.05727200  3.62053000  1
  Mo  Mo1  1  1.92783000  1.79193000  -0.03772920  1
  Mo  Mo2  1  1.83262000  7.24225000  1.78094000  1
  Mo  Mo3  1  7.23504000  1.70703000  1.76867000  1
  Mo  Mo4  1  3.60091000  -0.03217110  0.04543540  1
  Mo  Mo5  1  5.43385000  1.74739000  3.66727000  1
  Mo  Mo6  1  5.39690000  7.29668000  1.84634000  1
  Mo  Mo7  1  3.60942000  1.87322000  1.75045000  1
  Mo  Mo8  1  0.00069391  3.62395000  3.62237000  1
  Mo  Mo9  1  1.76645000  5.42018000  0.01690920  1
  Mo  Mo10  1  1.77204000  3.75316000  1.92881000  1
  Mo  Mo11  1  7.25510000  5.56343000  1.73530000  1
  Mo  Mo12  1  3.81051000  3.66294000  0.05655240  1
  Mo  Mo13  1  5.41279000  5.45983000  3.65881000  1
  Mo  Mo14  1  5.54426000  3.66771000  1.75472000  1
  Mo  Mo15  1  3.61866000  5.38919000  1.89663000  1
