# generated using pymatgen
data_Mo
_symmetry_space_group_name_H-M   'P 1'
_cell_length_a   7.28858920
_cell_length_b   7.28858920
_cell_length_c   3.64429450
_cell_angle_alpha   90.00000000
_cell_angle_beta   90.00000000
_cell_angle_gamma   90.00000000
_symmetry_Int_Tables_number   1
_chemical_formula_structural   Mo
_chemical_formula_sum   Mo16
_cell_volume   193.59779752
_cell_formula_units_Z   16
loop_
 _symmetry_equiv_pos_site_id
 _symmetry_equiv_pos_as_xyz
  1  'x, y, z'
loop_
 _atom_site_type_symbol
 _atom_site_label
 _atom_site_symmetry_multiplicity
 _atom_site_fract_x
 _atom_site_fract_y
 _atom_site_fract_z
 _atom_site_occupancy
  Mo  Mo0  1  0.02060290  0.02843440  3.68377000  1
  Mo  Mo1  1  1.88441000  1.81338000  0.00607361  1
  Mo  Mo2  1  1.88810000  7.23094000  1.86185000  1
  Mo  Mo3  1  7.33656000  1.74822000  1.80602000  1
  Mo  Mo4  1  3.61618000  -0.01849720  -0.05399730  1
  Mo  Mo5  1  5.48886000  1.81821000  3.60261000  1
  Mo  Mo6  1  5.39289000  7.25937000  1.74712000  1
  Mo  Mo7  1  3.57826000  1.84887000  1.79143000  1
  Mo  Mo8  1  -0.01339300  3.70086000  3.67267000  1
  Mo  Mo9  1  1.75621000  5.49076000  0.04019400  1
  Mo  Mo10  1  1.79987000  3.69052000  1.85708000  1
  Mo  Mo11  1  7.30818000  5.45031000  1.80794000  1
  Mo  Mo12  1  3.62465000  3.62918000  -0.07346500  1
  Mo  Mo13  1  5.43126000  5.43686000  3.61179000  1
  Mo  Mo14  1  5.37384000  3.66245000  1.88269000  1
  Mo  Mo15  1  3.73751000  5.43413000  1.86822000  1
