# generated using pymatgen
data_Mo
_symmetry_space_group_name_H-M   'P 1'
_cell_length_a   7.28858920
_cell_length_b   7.28858920
_cell_length_c   3.64429450
_cell_angle_alpha   90.00000000
_cell_angle_beta   90.00000000
_cell_angle_gamma   90.00000000
_symmetry_Int_Tables_number   1
_chemical_formula_structural   Mo
_chemical_formula_sum   Mo16
_cell_volume   193.59779752
_cell_formula_units_Z   16
loop_
 _symmetry_equiv_pos_site_id
 _symmetry_equiv_pos_as_xyz
  1  'x, y, z'
loop_
 _atom_site_type_symbol
 _atom_site_label
 _atom_site_symmetry_multiplicity
 _atom_site_fract_x
 _atom_site_fract_y
 _atom_site_fract_z
 _atom_site_occupancy
  Mo  Mo0  1  -0.05223090  -0.09842130  3.65013000  1
  Mo  Mo1  1  1.81885000  1.75144000  0.00836340  1
  Mo  Mo2  1  1.90083000  7.23598000  1.90909000  1
  Mo  Mo3  1  7.39948000  1.80037000  1.82154000  1
  Mo  Mo4  1  3.62278000  -0.02971430  -0.04790810  1
  Mo  Mo5  1  5.45631000  1.84954000  3.59482000  1
  Mo  Mo6  1  5.35490000  7.30472000  1.74658000  1
  Mo  Mo7  1  3.69009000  1.91783000  1.87908000  1
  Mo  Mo8  1  0.00782784  3.69027000  3.58167000  1
  Mo  Mo9  1  1.89960000  5.39963000  0.08708290  1
  Mo  Mo10  1  1.78175000  3.76336000  1.79873000  1
  Mo  Mo11  1  7.22775000  5.56361000  1.91358000  1
  Mo  Mo12  1  3.53627000  3.63812000  -0.04433410  1
  Mo  Mo13  1  5.41903000  5.50952000  3.58955000  1
  Mo  Mo14  1  5.50313000  3.53752000  1.81217000  1
  Mo  Mo15  1  3.65762000  5.39023000  1.81185000  1
