# generated using pymatgen
data_Mo
_symmetry_space_group_name_H-M   'P 1'
_cell_length_a   7.28858920
_cell_length_b   7.28858920
_cell_length_c   3.64429450
_cell_angle_alpha   90.00000000
_cell_angle_beta   90.00000000
_cell_angle_gamma   90.00000000
_symmetry_Int_Tables_number   1
_chemical_formula_structural   Mo
_chemical_formula_sum   Mo16
_cell_volume   193.59779752
_cell_formula_units_Z   16
loop_
 _symmetry_equiv_pos_site_id
 _symmetry_equiv_pos_as_xyz
  1  'x, y, z'
loop_
 _atom_site_type_symbol
 _atom_site_label
 _atom_site_symmetry_multiplicity
 _atom_site_fract_x
 _atom_site_fract_y
 _atom_site_fract_z
 _atom_site_occupancy
  Mo  Mo0  1  -0.00264095  0.01790550  3.61625000  1
  Mo  Mo1  1  1.84662000  1.91202000  -0.04327130  1
  Mo  Mo2  1  1.71426000  7.18221000  1.71304000  1
  Mo  Mo3  1  7.14838000  1.85915000  1.85325000  1
  Mo  Mo4  1  3.69663000  0.04714630  -0.04646410  1
  Mo  Mo5  1  5.57444000  1.79615000  3.67169000  1
  Mo  Mo6  1  5.63010000  7.30964000  1.95620000  1
  Mo  Mo7  1  3.66349000  1.72070000  1.82724000  1
  Mo  Mo8  1  0.07403280  3.60290000  3.65978000  1
  Mo  Mo9  1  1.78968000  5.56291000  -0.07303090  1
  Mo  Mo10  1  1.84216000  3.58776000  1.86650000  1
  Mo  Mo11  1  7.26905000  5.38629000  1.74364000  1
  Mo  Mo12  1  3.59493000  3.55206000  0.01057690  1
  Mo  Mo13  1  5.39725000  5.46091000  3.62407000  1
  Mo  Mo14  1  5.38756000  3.64231000  1.87962000  1
  Mo  Mo15  1  3.59805000  5.58394000  1.85293000  1
