# generated using pymatgen
data_Mo
_symmetry_space_group_name_H-M   'P 1'
_cell_length_a   7.28858920
_cell_length_b   7.28858920
_cell_length_c   3.64429450
_cell_angle_alpha   90.00000000
_cell_angle_beta   90.00000000
_cell_angle_gamma   90.00000000
_symmetry_Int_Tables_number   1
_chemical_formula_structural   Mo
_chemical_formula_sum   Mo16
_cell_volume   193.59779752
_cell_formula_units_Z   16
loop_
 _symmetry_equiv_pos_site_id
 _symmetry_equiv_pos_as_xyz
  1  'x, y, z'
loop_
 _atom_site_type_symbol
 _atom_site_label
 _atom_site_symmetry_multiplicity
 _atom_site_fract_x
 _atom_site_fract_y
 _atom_site_fract_z
 _atom_site_occupancy
  Mo  Mo0  1  -0.05118030  -0.04937930  3.62955000  1
  Mo  Mo1  1  1.72774000  1.78736000  -0.02567830  1
  Mo  Mo2  1  1.70151000  7.20446000  1.84538000  1
  Mo  Mo3  1  7.35890000  1.95417000  1.86474000  1
  Mo  Mo4  1  3.66208000  0.04409130  -0.00655572  1
  Mo  Mo5  1  5.42490000  1.83211000  3.76249000  1
  Mo  Mo6  1  5.57117000  7.28780000  1.77762000  1
  Mo  Mo7  1  3.59870000  1.78792000  1.86657000  1
  Mo  Mo8  1  0.04084830  3.61931000  3.58095000  1
  Mo  Mo9  1  1.88945000  5.44473000  -0.03715860  1
  Mo  Mo10  1  1.88837000  3.66943000  1.71231000  1
  Mo  Mo11  1  7.21467000  5.39866000  1.79817000  1
  Mo  Mo12  1  3.63758000  3.64111000  0.12773400  1
  Mo  Mo13  1  5.43390000  5.50103000  3.63487000  1
  Mo  Mo14  1  5.52190000  3.64875000  1.81636000  1
  Mo  Mo15  1  3.60344000  5.45245000  1.76465000  1
