# generated using pymatgen
data_Mo
_symmetry_space_group_name_H-M   'P 1'
_cell_length_a   7.27806742
_cell_length_b   7.27806742
_cell_length_c   3.63903379
_cell_angle_alpha   90.00000000
_cell_angle_beta   90.00000000
_cell_angle_gamma   90.00000000
_symmetry_Int_Tables_number   1
_chemical_formula_structural   Mo
_chemical_formula_sum   Mo16
_cell_volume   192.76058556
_cell_formula_units_Z   16
loop_
 _symmetry_equiv_pos_site_id
 _symmetry_equiv_pos_as_xyz
  1  'x, y, z'
loop_
 _atom_site_type_symbol
 _atom_site_label
 _atom_site_symmetry_multiplicity
 _atom_site_fract_x
 _atom_site_fract_y
 _atom_site_fract_z
 _atom_site_occupancy
  Mo  Mo0  1  0.01331210  7.26534000  3.62464000  1
  Mo  Mo1  1  1.81447000  1.83545000  -0.02812660  1
  Mo  Mo2  1  1.85087000  7.29605000  1.81432000  1
  Mo  Mo3  1  7.28290000  1.81377000  1.83545000  1
  Mo  Mo4  1  3.64733000  7.26944000  -0.00764392  1
  Mo  Mo5  1  5.45026000  1.81122000  0.01018800  1
  Mo  Mo6  1  5.46680000  -0.00467172  1.81672000  1
  Mo  Mo7  1  3.63307000  1.81459000  1.82819000  1
  Mo  Mo8  1  7.27964000  3.65632000  3.63529000  1
  Mo  Mo9  1  1.79601000  5.46242000  3.64425000  1
  Mo  Mo10  1  1.82172000  3.63155000  1.82652000  1
  Mo  Mo11  1  -0.02592370  5.45819000  1.83746000  1
  Mo  Mo12  1  3.64144000  3.65382000  3.63979000  1
  Mo  Mo13  1  5.46044000  5.45653000  3.65942000  1
  Mo  Mo14  1  5.44780000  3.62554000  1.79948000  1
  Mo  Mo15  1  3.64387000  5.45651000  1.81509000  1
