# generated using pymatgen
data_Mo
_symmetry_space_group_name_H-M   'P 1'
_cell_length_a   7.28858920
_cell_length_b   7.28858920
_cell_length_c   3.64429450
_cell_angle_alpha   90.00000000
_cell_angle_beta   90.00000000
_cell_angle_gamma   90.00000000
_symmetry_Int_Tables_number   1
_chemical_formula_structural   Mo
_chemical_formula_sum   Mo16
_cell_volume   193.59779752
_cell_formula_units_Z   16
loop_
 _symmetry_equiv_pos_site_id
 _symmetry_equiv_pos_as_xyz
  1  'x, y, z'
loop_
 _atom_site_type_symbol
 _atom_site_label
 _atom_site_symmetry_multiplicity
 _atom_site_fract_x
 _atom_site_fract_y
 _atom_site_fract_z
 _atom_site_occupancy
  Mo  Mo0  1  0.05443290  0.11835500  3.66205000  1
  Mo  Mo1  1  1.93606000  1.83849000  -0.03158320  1
  Mo  Mo2  1  1.90046000  7.32769000  1.88444000  1
  Mo  Mo3  1  7.21510000  1.75071000  1.72842000  1
  Mo  Mo4  1  3.69458000  0.03618470  -0.00173536  1
  Mo  Mo5  1  5.41185000  1.75099000  3.66124000  1
  Mo  Mo6  1  5.46033000  7.25125000  1.80304000  1
  Mo  Mo7  1  3.57120000  1.82193000  1.86785000  1
  Mo  Mo8  1  -0.05404370  3.54761000  3.61585000  1
  Mo  Mo9  1  1.79113000  5.36210000  -0.05736440  1
  Mo  Mo10  1  1.71231000  3.65560000  1.73253000  1
  Mo  Mo11  1  7.28135000  5.45971000  1.86125000  1
  Mo  Mo12  1  3.68241000  3.64846000  -0.03160370  1
  Mo  Mo13  1  5.47700000  5.44446000  3.69819000  1
  Mo  Mo14  1  5.42524000  3.74851000  1.89212000  1
  Mo  Mo15  1  3.66460000  5.46196000  1.82730000  1
