# generated using pymatgen
data_Mo
_symmetry_space_group_name_H-M   'P 1'
_cell_length_a   7.28858920
_cell_length_b   7.28858920
_cell_length_c   3.64429450
_cell_angle_alpha   90.00000000
_cell_angle_beta   90.00000000
_cell_angle_gamma   90.00000000
_symmetry_Int_Tables_number   1
_chemical_formula_structural   Mo
_chemical_formula_sum   Mo16
_cell_volume   193.59779752
_cell_formula_units_Z   16
loop_
 _symmetry_equiv_pos_site_id
 _symmetry_equiv_pos_as_xyz
  1  'x, y, z'
loop_
 _atom_site_type_symbol
 _atom_site_label
 _atom_site_symmetry_multiplicity
 _atom_site_fract_x
 _atom_site_fract_y
 _atom_site_fract_z
 _atom_site_occupancy
  Mo  Mo0  1  -0.02916100  -0.08755000  3.62405000  1
  Mo  Mo1  1  1.72382000  1.66561000  -0.03716340  1
  Mo  Mo2  1  1.76268000  7.36168000  1.71324000  1
  Mo  Mo3  1  7.40092000  1.90001000  1.79492000  1
  Mo  Mo4  1  3.68154000  0.02448700  -0.00464659  1
  Mo  Mo5  1  5.50180000  1.82681000  3.77899000  1
  Mo  Mo6  1  5.55133000  7.29548000  1.82755000  1
  Mo  Mo7  1  3.69907000  1.76395000  1.90066000  1
  Mo  Mo8  1  -0.08816670  3.68443000  3.64503000  1
  Mo  Mo9  1  1.82986000  5.42522000  -0.04567790  1
  Mo  Mo10  1  1.85401000  3.68008000  1.77660000  1
  Mo  Mo11  1  7.27347000  5.41961000  1.83516000  1
  Mo  Mo12  1  3.60391000  3.65259000  0.04844860  1
  Mo  Mo13  1  5.44947000  5.48856000  3.68387000  1
  Mo  Mo14  1  5.39189000  3.58258000  1.81882000  1
  Mo  Mo15  1  3.61756000  5.54045000  1.75216000  1
