# generated using pymatgen
data_Mo
_symmetry_space_group_name_H-M   'P 1'
_cell_length_a   7.28858920
_cell_length_b   7.28858920
_cell_length_c   3.64429450
_cell_angle_alpha   90.00000000
_cell_angle_beta   90.00000000
_cell_angle_gamma   90.00000000
_symmetry_Int_Tables_number   1
_chemical_formula_structural   Mo
_chemical_formula_sum   Mo16
_cell_volume   193.59779752
_cell_formula_units_Z   16
loop_
 _symmetry_equiv_pos_site_id
 _symmetry_equiv_pos_as_xyz
  1  'x, y, z'
loop_
 _atom_site_type_symbol
 _atom_site_label
 _atom_site_symmetry_multiplicity
 _atom_site_fract_x
 _atom_site_fract_y
 _atom_site_fract_z
 _atom_site_occupancy
  Mo  Mo0  1  0.09193430  0.00090312  3.61528000  1
  Mo  Mo1  1  1.89464000  1.80286000  -0.00160971  1
  Mo  Mo2  1  1.86597000  7.18991000  1.78281000  1
  Mo  Mo3  1  7.25426000  1.89945000  1.83066000  1
  Mo  Mo4  1  3.60013000  -0.05882240  0.04248270  1
  Mo  Mo5  1  5.54012000  1.71228000  3.61983000  1
  Mo  Mo6  1  5.40886000  7.23939000  1.77648000  1
  Mo  Mo7  1  3.63040000  1.94443000  1.81627000  1
  Mo  Mo8  1  -0.07785910  3.62539000  3.58462000  1
  Mo  Mo9  1  1.80465000  5.45999000  -0.02083110  1
  Mo  Mo10  1  1.72493000  3.72886000  1.87941000  1
  Mo  Mo11  1  7.26589000  5.43705000  1.72151000  1
  Mo  Mo12  1  3.67801000  3.58999000  0.00978199  1
  Mo  Mo13  1  5.46497000  5.50374000  3.73674000  1
  Mo  Mo14  1  5.44199000  3.70610000  1.83198000  1
  Mo  Mo15  1  3.63510000  5.44248000  1.88659000  1
