# generated using pymatgen
data_Mo
_symmetry_space_group_name_H-M   'P 1'
_cell_length_a   7.28858920
_cell_length_b   7.28858920
_cell_length_c   3.64429450
_cell_angle_alpha   90.00000000
_cell_angle_beta   90.00000000
_cell_angle_gamma   90.00000000
_symmetry_Int_Tables_number   1
_chemical_formula_structural   Mo
_chemical_formula_sum   Mo16
_cell_volume   193.59779752
_cell_formula_units_Z   16
loop_
 _symmetry_equiv_pos_site_id
 _symmetry_equiv_pos_as_xyz
  1  'x, y, z'
loop_
 _atom_site_type_symbol
 _atom_site_label
 _atom_site_symmetry_multiplicity
 _atom_site_fract_x
 _atom_site_fract_y
 _atom_site_fract_z
 _atom_site_occupancy
  Mo  Mo0  1  0.03677290  0.00813421  3.62078000  1
  Mo  Mo1  1  1.72008000  1.85491000  -0.05812000  1
  Mo  Mo2  1  1.89240000  7.27685000  1.84429000  1
  Mo  Mo3  1  7.20750000  1.69537000  1.75445000  1
  Mo  Mo4  1  3.67822000  0.07996060  0.03618840  1
  Mo  Mo5  1  5.50867000  1.79678000  3.70086000  1
  Mo  Mo6  1  5.42228000  7.34241000  1.83892000  1
  Mo  Mo7  1  3.52634000  1.86912000  1.90399000  1
  Mo  Mo8  1  0.00592699  3.69138000  3.59626000  1
  Mo  Mo9  1  1.79080000  5.50048000  -0.10893300  1
  Mo  Mo10  1  1.78577000  3.59060000  1.85458000  1
  Mo  Mo11  1  7.32083000  5.47797000  1.79992000  1
  Mo  Mo12  1  3.73803000  3.59101000  0.03860080  1
  Mo  Mo13  1  5.42231000  5.38564000  3.60935000  1
  Mo  Mo14  1  5.54910000  3.65437000  1.87882000  1
  Mo  Mo15  1  3.61898000  5.40901000  1.80204000  1
