# generated using pymatgen
data_Mo
_symmetry_space_group_name_H-M   'P 1'
_cell_length_a   7.28858920
_cell_length_b   7.28858920
_cell_length_c   3.64429450
_cell_angle_alpha   90.00000000
_cell_angle_beta   90.00000000
_cell_angle_gamma   90.00000000
_symmetry_Int_Tables_number   1
_chemical_formula_structural   Mo
_chemical_formula_sum   Mo16
_cell_volume   193.59779752
_cell_formula_units_Z   16
loop_
 _symmetry_equiv_pos_site_id
 _symmetry_equiv_pos_as_xyz
  1  'x, y, z'
loop_
 _atom_site_type_symbol
 _atom_site_label
 _atom_site_symmetry_multiplicity
 _atom_site_fract_x
 _atom_site_fract_y
 _atom_site_fract_z
 _atom_site_occupancy
  Mo  Mo0  1  -0.03275040  -0.00153355  3.68789000  1
  Mo  Mo1  1  1.81196000  1.81148000  0.00988798  1
  Mo  Mo2  1  1.78626000  7.18125000  1.78706000  1
  Mo  Mo3  1  7.26512000  1.81629000  1.80528000  1
  Mo  Mo4  1  3.58039000  -0.05371580  -0.04449570  1
  Mo  Mo5  1  5.52695000  1.87961000  3.69475000  1
  Mo  Mo6  1  5.40472000  7.39315000  1.92146000  1
  Mo  Mo7  1  3.58305000  1.78809000  1.87951000  1
  Mo  Mo8  1  0.05294450  3.72573000  3.61600000  1
  Mo  Mo9  1  1.77675000  5.40673000  -0.06791830  1
  Mo  Mo10  1  1.84227000  3.68097000  1.85041000  1
  Mo  Mo11  1  7.34713000  5.36874000  1.77199000  1
  Mo  Mo12  1  3.63835000  3.64785000  -0.06308260  1
  Mo  Mo13  1  5.49119000  5.44038000  3.60058000  1
  Mo  Mo14  1  5.41494000  3.62885000  1.86326000  1
  Mo  Mo15  1  3.73473000  5.51012000  1.79942000  1
