# generated using pymatgen
data_Mo
_symmetry_space_group_name_H-M   'P 1'
_cell_length_a   7.28858920
_cell_length_b   7.28858920
_cell_length_c   3.64429450
_cell_angle_alpha   90.00000000
_cell_angle_beta   90.00000000
_cell_angle_gamma   90.00000000
_symmetry_Int_Tables_number   1
_chemical_formula_structural   Mo
_chemical_formula_sum   Mo16
_cell_volume   193.59779752
_cell_formula_units_Z   16
loop_
 _symmetry_equiv_pos_site_id
 _symmetry_equiv_pos_as_xyz
  1  'x, y, z'
loop_
 _atom_site_type_symbol
 _atom_site_label
 _atom_site_symmetry_multiplicity
 _atom_site_fract_x
 _atom_site_fract_y
 _atom_site_fract_z
 _atom_site_occupancy
  Mo  Mo0  1  0.03899880  -0.02545440  3.61203000  1
  Mo  Mo1  1  1.89320000  1.78780000  -0.07932670  1
  Mo  Mo2  1  1.84098000  7.43253000  1.84296000  1
  Mo  Mo3  1  7.29960000  1.82314000  1.77622000  1
  Mo  Mo4  1  3.58678000  -0.14943800  -0.07162640  1
  Mo  Mo5  1  5.43467000  1.75317000  3.56926000  1
  Mo  Mo6  1  5.54394000  7.25353000  1.86696000  1
  Mo  Mo7  1  3.72877000  1.78182000  1.79322000  1
  Mo  Mo8  1  -0.01700620  3.68272000  3.67058000  1
  Mo  Mo9  1  1.76471000  5.44168000  -0.00767662  1
  Mo  Mo10  1  1.85637000  3.54810000  1.79176000  1
  Mo  Mo11  1  7.19244000  5.40713000  1.89705000  1
  Mo  Mo12  1  3.70438000  3.74759000  -0.05464980  1
  Mo  Mo13  1  5.48772000  5.53911000  3.72726000  1
  Mo  Mo14  1  5.37569000  3.72746000  1.96500000  1
  Mo  Mo15  1  3.49278000  5.47311000  1.81298000  1
