# generated using pymatgen
data_Mo
_symmetry_space_group_name_H-M   'P 1'
_cell_length_a   7.28858920
_cell_length_b   7.28858920
_cell_length_c   3.64429450
_cell_angle_alpha   90.00000000
_cell_angle_beta   90.00000000
_cell_angle_gamma   90.00000000
_symmetry_Int_Tables_number   1
_chemical_formula_structural   Mo
_chemical_formula_sum   Mo16
_cell_volume   193.59779752
_cell_formula_units_Z   16
loop_
 _symmetry_equiv_pos_site_id
 _symmetry_equiv_pos_as_xyz
  1  'x, y, z'
loop_
 _atom_site_type_symbol
 _atom_site_label
 _atom_site_symmetry_multiplicity
 _atom_site_fract_x
 _atom_site_fract_y
 _atom_site_fract_z
 _atom_site_occupancy
  Mo  Mo0  1  -0.03566690  -0.03669850  3.61019000  1
  Mo  Mo1  1  1.75607000  1.79001000  -0.02639770  1
  Mo  Mo2  1  1.71386000  7.43481000  1.77306000  1
  Mo  Mo3  1  7.32976000  1.85865000  1.84890000  1
  Mo  Mo4  1  3.62422000  -0.02041980  -0.00373035  1
  Mo  Mo5  1  5.29962000  1.80907000  3.54318000  1
  Mo  Mo6  1  5.55826000  7.20417000  1.82864000  1
  Mo  Mo7  1  3.63322000  1.74478000  1.75959000  1
  Mo  Mo8  1  -0.01220550  3.70095000  3.66169000  1
  Mo  Mo9  1  1.85248000  5.44032000  0.13614000  1
  Mo  Mo10  1  1.88113000  3.60293000  1.88253000  1
  Mo  Mo11  1  7.35556000  5.28170000  1.83572000  1
  Mo  Mo12  1  3.61682000  3.73730000  0.00774149  1
  Mo  Mo13  1  5.52881000  5.52269000  3.57130000  1
  Mo  Mo14  1  5.45491000  3.67046000  1.80849000  1
  Mo  Mo15  1  3.66715000  5.48330000  1.87496000  1
