# generated using pymatgen
data_Mo
_symmetry_space_group_name_H-M   'P 1'
_cell_length_a   7.28858920
_cell_length_b   7.28858920
_cell_length_c   3.64429450
_cell_angle_alpha   90.00000000
_cell_angle_beta   90.00000000
_cell_angle_gamma   90.00000000
_symmetry_Int_Tables_number   1
_chemical_formula_structural   Mo
_chemical_formula_sum   Mo16
_cell_volume   193.59779752
_cell_formula_units_Z   16
loop_
 _symmetry_equiv_pos_site_id
 _symmetry_equiv_pos_as_xyz
  1  'x, y, z'
loop_
 _atom_site_type_symbol
 _atom_site_label
 _atom_site_symmetry_multiplicity
 _atom_site_fract_x
 _atom_site_fract_y
 _atom_site_fract_z
 _atom_site_occupancy
  Mo  Mo0  1  -0.03644340  -0.11139500  3.63345000  1
  Mo  Mo1  1  1.74073000  1.70176000  0.01661700  1
  Mo  Mo2  1  1.84144000  7.26196000  1.81116000  1
  Mo  Mo3  1  7.37888000  1.89128000  1.92150000  1
  Mo  Mo4  1  3.60984000  -0.03344910  -0.03432210  1
  Mo  Mo5  1  5.38125000  1.87642000  3.59144000  1
  Mo  Mo6  1  5.38642000  7.25076000  1.83599000  1
  Mo  Mo7  1  3.60229000  1.85663000  1.76943000  1
  Mo  Mo8  1  -0.00179995  3.70847000  3.65102000  1
  Mo  Mo9  1  1.91366000  5.44209000  0.01358500  1
  Mo  Mo10  1  1.85944000  3.72972000  1.83546000  1
  Mo  Mo11  1  7.25629000  5.52404000  1.84115000  1
  Mo  Mo12  1  3.62088000  3.63785000  -0.07100590  1
  Mo  Mo13  1  5.48287000  5.48503000  3.66044000  1
  Mo  Mo14  1  5.46867000  3.55430000  1.76309000  1
  Mo  Mo15  1  3.71957000  5.44853000  1.87300000  1
