# generated using pymatgen
data_Mo
_symmetry_space_group_name_H-M   'P 1'
_cell_length_a   7.28858920
_cell_length_b   7.28858920
_cell_length_c   3.64429450
_cell_angle_alpha   90.00000000
_cell_angle_beta   90.00000000
_cell_angle_gamma   90.00000000
_symmetry_Int_Tables_number   1
_chemical_formula_structural   Mo
_chemical_formula_sum   Mo16
_cell_volume   193.59779752
_cell_formula_units_Z   16
loop_
 _symmetry_equiv_pos_site_id
 _symmetry_equiv_pos_as_xyz
  1  'x, y, z'
loop_
 _atom_site_type_symbol
 _atom_site_label
 _atom_site_symmetry_multiplicity
 _atom_site_fract_x
 _atom_site_fract_y
 _atom_site_fract_z
 _atom_site_occupancy
  Mo  Mo0  1  -0.04959750  -0.13352000  3.63988000  1
  Mo  Mo1  1  1.83417000  1.80589000  -0.07250350  1
  Mo  Mo2  1  1.76817000  7.28200000  1.69694000  1
  Mo  Mo3  1  7.33654000  1.78211000  1.80400000  1
  Mo  Mo4  1  3.60919000  0.07287840  -0.00713818  1
  Mo  Mo5  1  5.54834000  1.81686000  3.66336000  1
  Mo  Mo6  1  5.31971000  7.34410000  1.82280000  1
  Mo  Mo7  1  3.50339000  1.85059000  1.71564000  1
  Mo  Mo8  1  0.00463303  3.72910000  3.66677000  1
  Mo  Mo9  1  1.90883000  5.39752000  0.02060290  1
  Mo  Mo10  1  1.81729000  3.62424000  1.83389000  1
  Mo  Mo11  1  7.24987000  5.57052000  1.85307000  1
  Mo  Mo12  1  3.65005000  3.66449000  0.05918580  1
  Mo  Mo13  1  5.42228000  5.34415000  3.75498000  1
  Mo  Mo14  1  5.54181000  3.62079000  1.76914000  1
  Mo  Mo15  1  3.75933000  5.45229000  1.89138000  1
