# generated using pymatgen
data_Mo
_symmetry_space_group_name_H-M   'P 1'
_cell_length_a   7.27806742
_cell_length_b   7.27806742
_cell_length_c   3.63903379
_cell_angle_alpha   90.00000000
_cell_angle_beta   90.00000000
_cell_angle_gamma   90.00000000
_symmetry_Int_Tables_number   1
_chemical_formula_structural   Mo
_chemical_formula_sum   Mo16
_cell_volume   192.76058556
_cell_formula_units_Z   16
loop_
 _symmetry_equiv_pos_site_id
 _symmetry_equiv_pos_as_xyz
  1  'x, y, z'
loop_
 _atom_site_type_symbol
 _atom_site_label
 _atom_site_symmetry_multiplicity
 _atom_site_fract_x
 _atom_site_fract_y
 _atom_site_fract_z
 _atom_site_occupancy
  Mo  Mo0  1  0.01382440  7.30258000  3.62653000  1
  Mo  Mo1  1  1.81890000  1.81640000  -0.01804350  1
  Mo  Mo2  1  1.81721000  7.25908000  1.80372000  1
  Mo  Mo3  1  7.26044000  1.83208000  1.81955000  1
  Mo  Mo4  1  3.63393000  7.27970000  -0.02316280  1
  Mo  Mo5  1  5.48532000  1.82252000  0.00201594  1
  Mo  Mo6  1  5.44483000  -0.01453500  1.81715000  1
  Mo  Mo7  1  3.64214000  1.82157000  1.80900000  1
  Mo  Mo8  1  7.28542000  3.62595000  3.64495000  1
  Mo  Mo9  1  1.81769000  5.46711000  3.67752000  1
  Mo  Mo10  1  1.81040000  3.64633000  1.84510000  1
  Mo  Mo11  1  -0.00467384  5.45767000  1.84446000  1
  Mo  Mo12  1  3.62024000  3.62729000  3.63186000  1
  Mo  Mo13  1  5.47300000  5.47178000  3.63306000  1
  Mo  Mo14  1  5.44873000  3.62973000  1.81895000  1
  Mo  Mo15  1  3.65661000  5.45683000  1.81836000  1
