# generated using pymatgen
data_Mo
_symmetry_space_group_name_H-M   'P 1'
_cell_length_a   7.28858920
_cell_length_b   7.28858920
_cell_length_c   3.64429450
_cell_angle_alpha   90.00000000
_cell_angle_beta   90.00000000
_cell_angle_gamma   90.00000000
_symmetry_Int_Tables_number   1
_chemical_formula_structural   Mo
_chemical_formula_sum   Mo16
_cell_volume   193.59779752
_cell_formula_units_Z   16
loop_
 _symmetry_equiv_pos_site_id
 _symmetry_equiv_pos_as_xyz
  1  'x, y, z'
loop_
 _atom_site_type_symbol
 _atom_site_label
 _atom_site_symmetry_multiplicity
 _atom_site_fract_x
 _atom_site_fract_y
 _atom_site_fract_z
 _atom_site_occupancy
  Mo  Mo0  1  0.02127890  0.04056600  3.66226000  1
  Mo  Mo1  1  1.83923000  1.82452000  -0.11668000  1
  Mo  Mo2  1  1.77585000  7.27183000  1.82028000  1
  Mo  Mo3  1  7.33456000  1.83107000  1.76874000  1
  Mo  Mo4  1  3.66450000  -0.00477781  0.00911590  1
  Mo  Mo5  1  5.54368000  1.81699000  3.63685000  1
  Mo  Mo6  1  5.53465000  7.41574000  1.88416000  1
  Mo  Mo7  1  3.52307000  1.82383000  1.78789000  1
  Mo  Mo8  1  0.03184200  3.65595000  3.64734000  1
  Mo  Mo9  1  1.74993000  5.44562000  -0.06190140  1
  Mo  Mo10  1  1.84811000  3.67748000  1.85136000  1
  Mo  Mo11  1  7.18991000  5.41425000  1.84258000  1
  Mo  Mo12  1  3.74104000  3.58524000  -0.03543280  1
  Mo  Mo13  1  5.35742000  5.42748000  3.70009000  1
  Mo  Mo14  1  5.50338000  3.56070000  1.84361000  1
  Mo  Mo15  1  3.56556000  5.43750000  1.87174000  1
