# generated using pymatgen
data_Mo
_symmetry_space_group_name_H-M   'P 1'
_cell_length_a   7.28858920
_cell_length_b   7.28858920
_cell_length_c   3.64429450
_cell_angle_alpha   90.00000000
_cell_angle_beta   90.00000000
_cell_angle_gamma   90.00000000
_symmetry_Int_Tables_number   1
_chemical_formula_structural   Mo
_chemical_formula_sum   Mo16
_cell_volume   193.59779752
_cell_formula_units_Z   16
loop_
 _symmetry_equiv_pos_site_id
 _symmetry_equiv_pos_as_xyz
  1  'x, y, z'
loop_
 _atom_site_type_symbol
 _atom_site_label
 _atom_site_symmetry_multiplicity
 _atom_site_fract_x
 _atom_site_fract_y
 _atom_site_fract_z
 _atom_site_occupancy
  Mo  Mo0  1  0.01885740  0.05364320  3.66656000  1
  Mo  Mo1  1  1.94762000  1.87349000  -0.06098530  1
  Mo  Mo2  1  1.69631000  7.24888000  1.81733000  1
  Mo  Mo3  1  7.26259000  1.82181000  1.81990000  1
  Mo  Mo4  1  3.63747000  0.05505850  0.03829760  1
  Mo  Mo5  1  5.44738000  1.75915000  3.67282000  1
  Mo  Mo6  1  5.47258000  7.24078000  1.76505000  1
  Mo  Mo7  1  3.70726000  1.78136000  1.76921000  1
  Mo  Mo8  1  -0.05339290  3.52976000  3.66909000  1
  Mo  Mo9  1  1.68596000  5.40978000  -0.04183650  1
  Mo  Mo10  1  1.86004000  3.59708000  1.72605000  1
  Mo  Mo11  1  7.37236000  5.47402000  1.83345000  1
  Mo  Mo12  1  3.63454000  3.66140000  -0.02338540  1
  Mo  Mo13  1  5.46007000  5.50827000  3.71001000  1
  Mo  Mo14  1  5.45083000  3.68084000  1.83702000  1
  Mo  Mo15  1  3.62352000  5.52866000  1.91341000  1
