# generated using pymatgen
data_Mo
_symmetry_space_group_name_H-M   'P 1'
_cell_length_a   7.28858920
_cell_length_b   7.28858920
_cell_length_c   3.64429450
_cell_angle_alpha   90.00000000
_cell_angle_beta   90.00000000
_cell_angle_gamma   90.00000000
_symmetry_Int_Tables_number   1
_chemical_formula_structural   Mo
_chemical_formula_sum   Mo16
_cell_volume   193.59779752
_cell_formula_units_Z   16
loop_
 _symmetry_equiv_pos_site_id
 _symmetry_equiv_pos_as_xyz
  1  'x, y, z'
loop_
 _atom_site_type_symbol
 _atom_site_label
 _atom_site_symmetry_multiplicity
 _atom_site_fract_x
 _atom_site_fract_y
 _atom_site_fract_z
 _atom_site_occupancy
  Mo  Mo0  1  0.02145560  0.03823790  3.68873000  1
  Mo  Mo1  1  1.88591000  1.89531000  -0.03470120  1
  Mo  Mo2  1  1.72180000  7.25965000  1.91286000  1
  Mo  Mo3  1  7.19954000  1.90192000  1.71194000  1
  Mo  Mo4  1  3.54823000  -0.01219750  -0.02921570  1
  Mo  Mo5  1  5.51682000  1.79670000  3.62385000  1
  Mo  Mo6  1  5.44719000  7.21701000  1.76770000  1
  Mo  Mo7  1  3.58301000  1.76567000  1.79648000  1
  Mo  Mo8  1  0.07195470  3.54770000  3.63093000  1
  Mo  Mo9  1  1.74778000  5.44817000  0.03620280  1
  Mo  Mo10  1  1.92653000  3.60724000  1.82809000  1
  Mo  Mo11  1  7.28927000  5.45317000  1.91725000  1
  Mo  Mo12  1  3.71511000  3.60049000  -0.04419120  1
  Mo  Mo13  1  5.51887000  5.38719000  3.68794000  1
  Mo  Mo14  1  5.43283000  3.72061000  1.76378000  1
  Mo  Mo15  1  3.59772000  5.59713000  1.85436000  1
