# generated using pymatgen
data_Mo
_symmetry_space_group_name_H-M   'P 1'
_cell_length_a   7.28858920
_cell_length_b   7.28858920
_cell_length_c   3.64429450
_cell_angle_alpha   90.00000000
_cell_angle_beta   90.00000000
_cell_angle_gamma   90.00000000
_symmetry_Int_Tables_number   1
_chemical_formula_structural   Mo
_chemical_formula_sum   Mo16
_cell_volume   193.59779752
_cell_formula_units_Z   16
loop_
 _symmetry_equiv_pos_site_id
 _symmetry_equiv_pos_as_xyz
  1  'x, y, z'
loop_
 _atom_site_type_symbol
 _atom_site_label
 _atom_site_symmetry_multiplicity
 _atom_site_fract_x
 _atom_site_fract_y
 _atom_site_fract_z
 _atom_site_occupancy
  Mo  Mo0  1  -0.03558910  -0.04409230  3.63441000  1
  Mo  Mo1  1  1.77937000  1.89594000  -0.02778230  1
  Mo  Mo2  1  1.82357000  7.31118000  1.90627000  1
  Mo  Mo3  1  7.23812000  1.88256000  1.78560000  1
  Mo  Mo4  1  3.70592000  -0.04331400  0.01410760  1
  Mo  Mo5  1  5.43327000  1.79119000  3.66540000  1
  Mo  Mo6  1  5.47409000  7.28873000  1.71746000  1
  Mo  Mo7  1  3.47468000  1.77941000  1.86375000  1
  Mo  Mo8  1  0.08924170  3.68897000  3.64981000  1
  Mo  Mo9  1  1.84144000  5.49410000  -0.05791990  1
  Mo  Mo10  1  1.95137000  3.58866000  1.83812000  1
  Mo  Mo11  1  7.29828000  5.38530000  1.79844000  1
  Mo  Mo12  1  3.72478000  3.59405000  0.04386000  1
  Mo  Mo13  1  5.40831000  5.47605000  3.62495000  1
  Mo  Mo14  1  5.40730000  3.60134000  1.87361000  1
  Mo  Mo15  1  3.60985000  5.53391000  1.78191000  1
