# generated using pymatgen
data_Mo
_symmetry_space_group_name_H-M   'P 1'
_cell_length_a   7.28858920
_cell_length_b   7.28858920
_cell_length_c   3.64429450
_cell_angle_alpha   90.00000000
_cell_angle_beta   90.00000000
_cell_angle_gamma   90.00000000
_symmetry_Int_Tables_number   1
_chemical_formula_structural   Mo
_chemical_formula_sum   Mo16
_cell_volume   193.59779752
_cell_formula_units_Z   16
loop_
 _symmetry_equiv_pos_site_id
 _symmetry_equiv_pos_as_xyz
  1  'x, y, z'
loop_
 _atom_site_type_symbol
 _atom_site_label
 _atom_site_symmetry_multiplicity
 _atom_site_fract_x
 _atom_site_fract_y
 _atom_site_fract_z
 _atom_site_occupancy
  Mo  Mo0  1  0.05783030  0.13721400  3.62728000  1
  Mo  Mo1  1  1.92126000  1.84010000  -0.00945147  1
  Mo  Mo2  1  1.77125000  7.28910000  1.76561000  1
  Mo  Mo3  1  7.14940000  1.86571000  1.91967000  1
  Mo  Mo4  1  3.62921000  -0.01368370  -0.07546720  1
  Mo  Mo5  1  5.47970000  1.78732000  3.76737000  1
  Mo  Mo6  1  5.49993000  7.30206000  1.84623000  1
  Mo  Mo7  1  3.67273000  1.79659000  1.80585000  1
  Mo  Mo8  1  0.03030260  3.53291000  3.67462000  1
  Mo  Mo9  1  1.75741000  5.37659000  -0.09421480  1
  Mo  Mo10  1  1.84080000  3.61216000  1.91439000  1
  Mo  Mo11  1  7.33533000  5.47277000  1.76085000  1
  Mo  Mo12  1  3.68962000  3.57869000  -0.03413340  1
  Mo  Mo13  1  5.46489000  5.43666000  3.61994000  1
  Mo  Mo14  1  5.38163000  3.72778000  1.80089000  1
  Mo  Mo15  1  3.54271000  5.48202000  1.82257000  1
