# generated using pymatgen
data_Mo
_symmetry_space_group_name_H-M   'P 1'
_cell_length_a   7.28858920
_cell_length_b   7.28858920
_cell_length_c   3.64429450
_cell_angle_alpha   90.00000000
_cell_angle_beta   90.00000000
_cell_angle_gamma   90.00000000
_symmetry_Int_Tables_number   1
_chemical_formula_structural   Mo
_chemical_formula_sum   Mo16
_cell_volume   193.59779752
_cell_formula_units_Z   16
loop_
 _symmetry_equiv_pos_site_id
 _symmetry_equiv_pos_as_xyz
  1  'x, y, z'
loop_
 _atom_site_type_symbol
 _atom_site_label
 _atom_site_symmetry_multiplicity
 _atom_site_fract_x
 _atom_site_fract_y
 _atom_site_fract_z
 _atom_site_occupancy
  Mo  Mo0  1  0.10142700  -0.07009630  3.66180000  1
  Mo  Mo1  1  1.83982000  1.84119000  0.00829962  1
  Mo  Mo2  1  1.86977000  7.40646000  1.79395000  1
  Mo  Mo3  1  7.23123000  1.77982000  1.69886000  1
  Mo  Mo4  1  3.67301000  -0.08951600  -0.05038920  1
  Mo  Mo5  1  5.37318000  1.82585000  3.57860000  1
  Mo  Mo6  1  5.39416000  7.29256000  1.84957000  1
  Mo  Mo7  1  3.69210000  1.87819000  1.80820000  1
  Mo  Mo8  1  -0.03708170  3.63185000  3.65811000  1
  Mo  Mo9  1  1.80900000  5.39239000  0.11394900  1
  Mo  Mo10  1  1.66283000  3.66951000  1.83050000  1
  Mo  Mo11  1  7.26287000  5.51992000  1.84894000  1
  Mo  Mo12  1  3.68832000  3.65172000  0.08108690  1
  Mo  Mo13  1  5.61010000  5.37500000  3.68780000  1
  Mo  Mo14  1  5.47924000  3.64348000  1.73642000  1
  Mo  Mo15  1  3.57401000  5.47567000  1.80631000  1
