# generated using pymatgen
data_Mo
_symmetry_space_group_name_H-M   'P 1'
_cell_length_a   7.28858920
_cell_length_b   7.28858920
_cell_length_c   3.64429450
_cell_angle_alpha   90.00000000
_cell_angle_beta   90.00000000
_cell_angle_gamma   90.00000000
_symmetry_Int_Tables_number   1
_chemical_formula_structural   Mo
_chemical_formula_sum   Mo16
_cell_volume   193.59779752
_cell_formula_units_Z   16
loop_
 _symmetry_equiv_pos_site_id
 _symmetry_equiv_pos_as_xyz
  1  'x, y, z'
loop_
 _atom_site_type_symbol
 _atom_site_label
 _atom_site_symmetry_multiplicity
 _atom_site_fract_x
 _atom_site_fract_y
 _atom_site_fract_z
 _atom_site_occupancy
  Mo  Mo0  1  -0.02117970  -0.08741690  3.77141000  1
  Mo  Mo1  1  1.82944000  1.83893000  0.00183764  1
  Mo  Mo2  1  1.75803000  7.36578000  1.88377000  1
  Mo  Mo3  1  7.17865000  1.83309000  1.72740000  1
  Mo  Mo4  1  3.66526000  -0.00518533  -0.00048212  1
  Mo  Mo5  1  5.62648000  1.88919000  3.57153000  1
  Mo  Mo6  1  5.53087000  7.33479000  1.81726000  1
  Mo  Mo7  1  3.66743000  1.73042000  1.76384000  1
  Mo  Mo8  1  -0.04175510  3.74838000  3.59857000  1
  Mo  Mo9  1  1.82488000  5.51022000  0.10093800  1
  Mo  Mo10  1  1.80137000  3.57339000  1.80566000  1
  Mo  Mo11  1  7.32847000  5.40047000  1.80586000  1
  Mo  Mo12  1  3.62827000  3.53724000  -0.03950960  1
  Mo  Mo13  1  5.43148000  5.34994000  3.64415000  1
  Mo  Mo14  1  5.35482000  3.53355000  1.80268000  1
  Mo  Mo15  1  3.66149000  5.67123000  1.85708000  1
