# generated using pymatgen
data_Mo
_symmetry_space_group_name_H-M   'P 1'
_cell_length_a   7.28858920
_cell_length_b   7.28858920
_cell_length_c   3.64429450
_cell_angle_alpha   90.00000000
_cell_angle_beta   90.00000000
_cell_angle_gamma   90.00000000
_symmetry_Int_Tables_number   1
_chemical_formula_structural   Mo
_chemical_formula_sum   Mo16
_cell_volume   193.59779752
_cell_formula_units_Z   16
loop_
 _symmetry_equiv_pos_site_id
 _symmetry_equiv_pos_as_xyz
  1  'x, y, z'
loop_
 _atom_site_type_symbol
 _atom_site_label
 _atom_site_symmetry_multiplicity
 _atom_site_fract_x
 _atom_site_fract_y
 _atom_site_fract_z
 _atom_site_occupancy
  Mo  Mo0  1  0.03467160  0.00588045  3.47579000  1
  Mo  Mo1  1  1.79003000  1.93185000  -0.06392480  1
  Mo  Mo2  1  1.90005000  7.35303000  1.74295000  1
  Mo  Mo3  1  7.38302000  1.74387000  1.76907000  1
  Mo  Mo4  1  3.59045000  -0.04346170  0.06086240  1
  Mo  Mo5  1  5.43196000  1.82626000  3.65578000  1
  Mo  Mo6  1  5.46613000  7.24640000  1.83480000  1
  Mo  Mo7  1  3.66554000  1.74057000  1.83271000  1
  Mo  Mo8  1  -0.10065700  3.67978000  3.64512000  1
  Mo  Mo9  1  1.77777000  5.42725000  -0.01239900  1
  Mo  Mo10  1  1.77673000  3.64256000  1.84916000  1
  Mo  Mo11  1  7.19858000  5.51974000  1.80808000  1
  Mo  Mo12  1  3.68068000  3.73112000  0.11872800  1
  Mo  Mo13  1  5.44390000  5.45246000  3.58838000  1
  Mo  Mo14  1  5.55448000  3.58734000  1.89826000  1
  Mo  Mo15  1  3.63066000  5.37935000  1.90863000  1
