# generated using pymatgen
data_Mo
_symmetry_space_group_name_H-M   'P 1'
_cell_length_a   7.28858920
_cell_length_b   7.28858920
_cell_length_c   3.64429450
_cell_angle_alpha   90.00000000
_cell_angle_beta   90.00000000
_cell_angle_gamma   90.00000000
_symmetry_Int_Tables_number   1
_chemical_formula_structural   Mo
_chemical_formula_sum   Mo16
_cell_volume   193.59779752
_cell_formula_units_Z   16
loop_
 _symmetry_equiv_pos_site_id
 _symmetry_equiv_pos_as_xyz
  1  'x, y, z'
loop_
 _atom_site_type_symbol
 _atom_site_label
 _atom_site_symmetry_multiplicity
 _atom_site_fract_x
 _atom_site_fract_y
 _atom_site_fract_z
 _atom_site_occupancy
  Mo  Mo0  1  -0.01249800  -0.06333480  3.70782000  1
  Mo  Mo1  1  1.78392000  1.83554000  -0.05133810  1
  Mo  Mo2  1  1.85481000  7.32102000  1.93806000  1
  Mo  Mo3  1  7.23835000  1.83618000  1.75217000  1
  Mo  Mo4  1  3.71219000  -0.04128340  0.00545748  1
  Mo  Mo5  1  5.59610000  1.83649000  3.65407000  1
  Mo  Mo6  1  5.49154000  7.20498000  1.72306000  1
  Mo  Mo7  1  3.64500000  1.78411000  1.79378000  1
  Mo  Mo8  1  0.00279878  3.72884000  3.66796000  1
  Mo  Mo9  1  1.73915000  5.53239000  -0.01851560  1
  Mo  Mo10  1  1.86184000  3.51031000  1.82333000  1
  Mo  Mo11  1  7.28237000  5.41668000  1.89795000  1
  Mo  Mo12  1  3.74132000  3.60846000  -0.01725720  1
  Mo  Mo13  1  5.34787000  5.44564000  3.66376000  1
  Mo  Mo14  1  5.45445000  3.73284000  1.84918000  1
  Mo  Mo15  1  3.48481000  5.53514000  1.72251000  1
