# generated using pymatgen
data_Mo
_symmetry_space_group_name_H-M   'P 1'
_cell_length_a   7.28858920
_cell_length_b   7.28858920
_cell_length_c   3.64429450
_cell_angle_alpha   90.00000000
_cell_angle_beta   90.00000000
_cell_angle_gamma   90.00000000
_symmetry_Int_Tables_number   1
_chemical_formula_structural   Mo
_chemical_formula_sum   Mo16
_cell_volume   193.59779752
_cell_formula_units_Z   16
loop_
 _symmetry_equiv_pos_site_id
 _symmetry_equiv_pos_as_xyz
  1  'x, y, z'
loop_
 _atom_site_type_symbol
 _atom_site_label
 _atom_site_symmetry_multiplicity
 _atom_site_fract_x
 _atom_site_fract_y
 _atom_site_fract_z
 _atom_site_occupancy
  Mo  Mo0  1  -0.07027110  -0.02140470  3.72070000  1
  Mo  Mo1  1  1.81611000  1.89308000  0.02884250  1
  Mo  Mo2  1  1.87033000  7.11240000  1.81604000  1
  Mo  Mo3  1  7.23941000  1.71350000  1.75656000  1
  Mo  Mo4  1  3.63791000  0.02372270  -0.00685263  1
  Mo  Mo5  1  5.45016000  1.79744000  3.59988000  1
  Mo  Mo6  1  5.33550000  7.39284000  1.82547000  1
  Mo  Mo7  1  3.47330000  1.81636000  1.72727000  1
  Mo  Mo8  1  0.10228100  3.74428000  3.70588000  1
  Mo  Mo9  1  1.88184000  5.49395000  0.05708500  1
  Mo  Mo10  1  1.86032000  3.73326000  1.90313000  1
  Mo  Mo11  1  7.31114000  5.47101000  1.86323000  1
  Mo  Mo12  1  3.67390000  3.59932000  0.00010394  1
  Mo  Mo13  1  5.41346000  5.41583000  3.61895000  1
  Mo  Mo14  1  5.51965000  3.66159000  1.73600000  1
  Mo  Mo15  1  3.70894000  5.37682000  1.75972000  1
