# generated using pymatgen
data_Mo
_symmetry_space_group_name_H-M   'P 1'
_cell_length_a   7.27808089
_cell_length_b   7.27808089
_cell_length_c   3.63904047
_cell_angle_alpha   90.00000000
_cell_angle_beta   90.00000000
_cell_angle_gamma   90.00000000
_symmetry_Int_Tables_number   1
_chemical_formula_structural   Mo
_chemical_formula_sum   Mo16
_cell_volume   192.76165285
_cell_formula_units_Z   16
loop_
 _symmetry_equiv_pos_site_id
 _symmetry_equiv_pos_as_xyz
  1  'x, y, z'
loop_
 _atom_site_type_symbol
 _atom_site_label
 _atom_site_symmetry_multiplicity
 _atom_site_fract_x
 _atom_site_fract_y
 _atom_site_fract_z
 _atom_site_occupancy
  Mo  Mo0  1  -0.00455954  7.28345000  0.00710507  1
  Mo  Mo1  1  1.82467000  1.82225000  0.00243405  1
  Mo  Mo2  1  1.81312000  7.27658000  1.82540000  1
  Mo  Mo3  1  7.27898000  1.80978000  1.82199000  1
  Mo  Mo4  1  3.62780000  7.28082000  3.62598000  1
  Mo  Mo5  1  5.45777000  1.82630000  0.00924677  1
  Mo  Mo6  1  5.45847000  0.00559291  1.82555000  1
  Mo  Mo7  1  3.64013000  1.80601000  1.81420000  1
  Mo  Mo8  1  7.28399000  3.63027000  3.64434000  1
  Mo  Mo9  1  1.82656000  5.45796000  3.63397000  1
  Mo  Mo10  1  1.81364000  3.63306000  1.80861000  1
  Mo  Mo11  1  7.28064000  5.45520000  1.82370000  1
  Mo  Mo12  1  3.63613000  3.64189000  0.00575590  1
  Mo  Mo13  1  5.45736000  5.47114000  3.63061000  1
  Mo  Mo14  1  5.45763000  3.65080000  1.81104000  1
  Mo  Mo15  1  3.64974000  5.45099000  1.82207000  1
