# generated using pymatgen
data_Mo
_symmetry_space_group_name_H-M   'P 1'
_cell_length_a   7.27806742
_cell_length_b   7.27806742
_cell_length_c   3.63903379
_cell_angle_alpha   90.00000000
_cell_angle_beta   90.00000000
_cell_angle_gamma   90.00000000
_symmetry_Int_Tables_number   1
_chemical_formula_structural   Mo
_chemical_formula_sum   Mo16
_cell_volume   192.76058556
_cell_formula_units_Z   16
loop_
 _symmetry_equiv_pos_site_id
 _symmetry_equiv_pos_as_xyz
  1  'x, y, z'
loop_
 _atom_site_type_symbol
 _atom_site_label
 _atom_site_symmetry_multiplicity
 _atom_site_fract_x
 _atom_site_fract_y
 _atom_site_fract_z
 _atom_site_occupancy
  Mo  Mo0  1  -0.00107916  7.29559000  3.65300000  1
  Mo  Mo1  1  1.83075000  1.83172000  -0.03104080  1
  Mo  Mo2  1  1.83663000  7.27922000  1.80560000  1
  Mo  Mo3  1  7.29422000  1.81424000  1.80346000  1
  Mo  Mo4  1  3.64920000  7.27850000  -0.01371430  1
  Mo  Mo5  1  5.41512000  1.81296000  0.01676250  1
  Mo  Mo6  1  5.47807000  -0.01755540  1.78208000  1
  Mo  Mo7  1  3.62892000  1.80728000  1.83327000  1
  Mo  Mo8  1  7.27210000  3.63959000  3.66016000  1
  Mo  Mo9  1  1.83253000  5.44666000  3.65687000  1
  Mo  Mo10  1  1.80284000  3.66013000  1.84580000  1
  Mo  Mo11  1  -0.01264160  5.45011000  1.84147000  1
  Mo  Mo12  1  3.65405000  3.64432000  3.62004000  1
  Mo  Mo13  1  5.44237000  5.45831000  3.65651000  1
  Mo  Mo14  1  5.47599000  3.64381000  1.80359000  1
  Mo  Mo15  1  3.62495000  5.45720000  1.81718000  1
