# generated using pymatgen
data_Mo
_symmetry_space_group_name_H-M   'P 1'
_cell_length_a   7.28858920
_cell_length_b   7.28858920
_cell_length_c   3.64429450
_cell_angle_alpha   90.00000000
_cell_angle_beta   90.00000000
_cell_angle_gamma   90.00000000
_symmetry_Int_Tables_number   1
_chemical_formula_structural   Mo
_chemical_formula_sum   Mo16
_cell_volume   193.59779752
_cell_formula_units_Z   16
loop_
 _symmetry_equiv_pos_site_id
 _symmetry_equiv_pos_as_xyz
  1  'x, y, z'
loop_
 _atom_site_type_symbol
 _atom_site_label
 _atom_site_symmetry_multiplicity
 _atom_site_fract_x
 _atom_site_fract_y
 _atom_site_fract_z
 _atom_site_occupancy
  Mo  Mo0  1  0.00814335  0.04678890  3.67096000  1
  Mo  Mo1  1  1.86140000  1.81029000  0.06898440  1
  Mo  Mo2  1  1.87450000  7.23398000  1.90244000  1
  Mo  Mo3  1  7.22131000  1.69909000  1.77228000  1
  Mo  Mo4  1  3.66035000  -0.07141240  -0.00660057  1
  Mo  Mo5  1  5.37679000  1.77067000  3.64427000  1
  Mo  Mo6  1  5.42661000  7.30731000  1.70234000  1
  Mo  Mo7  1  3.50529000  1.87555000  1.83193000  1
  Mo  Mo8  1  0.03444500  3.62469000  3.68467000  1
  Mo  Mo9  1  1.81363000  5.40630000  -0.03962320  1
  Mo  Mo10  1  1.73931000  3.75457000  1.86302000  1
  Mo  Mo11  1  7.24317000  5.52762000  1.82344000  1
  Mo  Mo12  1  3.72594000  3.69015000  0.01942300  1
  Mo  Mo13  1  5.44545000  5.49307000  3.60180000  1
  Mo  Mo14  1  5.60972000  3.66919000  1.84404000  1
  Mo  Mo15  1  3.67794000  5.38613000  1.72864000  1
