# generated using pymatgen
data_Mo
_symmetry_space_group_name_H-M   'P 1'
_cell_length_a   7.28778040
_cell_length_b   7.28778040
_cell_length_c   3.64389014
_cell_angle_alpha   90.00000000
_cell_angle_beta   90.00000000
_cell_angle_gamma   90.00000000
_symmetry_Int_Tables_number   1
_chemical_formula_structural   Mo
_chemical_formula_sum   Mo16
_cell_volume   193.53335759
_cell_formula_units_Z   16
loop_
 _symmetry_equiv_pos_site_id
 _symmetry_equiv_pos_as_xyz
  1  'x, y, z'
loop_
 _atom_site_type_symbol
 _atom_site_label
 _atom_site_symmetry_multiplicity
 _atom_site_fract_x
 _atom_site_fract_y
 _atom_site_fract_z
 _atom_site_occupancy
  Mo  Mo0  1  0.02883870  7.30222000  0.02373880  1
  Mo  Mo1  1  1.84208000  1.83125000  3.66375000  1
  Mo  Mo2  1  1.77738000  -0.00559311  1.78983000  1
  Mo  Mo3  1  7.28809000  1.77575000  1.83301000  1
  Mo  Mo4  1  3.66578000  -0.02757740  3.72448000  1
  Mo  Mo5  1  5.39101000  1.77013000  3.63002000  1
  Mo  Mo6  1  5.56928000  7.23856000  1.76254000  1
  Mo  Mo7  1  3.56905000  1.80341000  1.80417000  1
  Mo  Mo8  1  7.17622000  3.61305000  3.67659000  1
  Mo  Mo9  1  1.78116000  5.40944000  3.60674000  1
  Mo  Mo10  1  1.90924000  3.55330000  1.80415000  1
  Mo  Mo11  1  7.27042000  5.53377000  1.77712000  1
  Mo  Mo12  1  3.63228000  3.73545000  -0.08776810  1
  Mo  Mo13  1  5.51506000  5.58545000  3.67809000  1
  Mo  Mo14  1  5.34118000  3.65126000  1.78260000  1
  Mo  Mo15  1  3.75470000  5.45413000  1.93071000  1
