# generated using pymatgen
data_Mo
_symmetry_space_group_name_H-M   'P 1'
_cell_length_a   7.28778040
_cell_length_b   7.28778040
_cell_length_c   3.64389014
_cell_angle_alpha   90.00000000
_cell_angle_beta   90.00000000
_cell_angle_gamma   90.00000000
_symmetry_Int_Tables_number   1
_chemical_formula_structural   Mo
_chemical_formula_sum   Mo16
_cell_volume   193.53335759
_cell_formula_units_Z   16
loop_
 _symmetry_equiv_pos_site_id
 _symmetry_equiv_pos_as_xyz
  1  'x, y, z'
loop_
 _atom_site_type_symbol
 _atom_site_label
 _atom_site_symmetry_multiplicity
 _atom_site_fract_x
 _atom_site_fract_y
 _atom_site_fract_z
 _atom_site_occupancy
  Mo  Mo0  1  0.03476120  7.36647000  0.03010830  1
  Mo  Mo1  1  1.80432000  1.79298000  3.60137000  1
  Mo  Mo2  1  1.82711000  -0.04814420  1.76635000  1
  Mo  Mo3  1  7.18707000  1.91689000  1.86501000  1
  Mo  Mo4  1  3.65178000  -0.10723800  3.65641000  1
  Mo  Mo5  1  5.51570000  1.78769000  3.63048000  1
  Mo  Mo6  1  5.41484000  7.44029000  1.81015000  1
  Mo  Mo7  1  3.68699000  1.83733000  1.91008000  1
  Mo  Mo8  1  7.22446000  3.55436000  3.58107000  1
  Mo  Mo9  1  1.81148000  5.41405000  3.71962000  1
  Mo  Mo10  1  1.71054000  3.63994000  1.84756000  1
  Mo  Mo11  1  7.32272000  5.52129000  1.78199000  1
  Mo  Mo12  1  3.60267000  3.59583000  -0.01270080  1
  Mo  Mo13  1  5.46128000  5.47675000  3.61612000  1
  Mo  Mo14  1  5.49147000  3.61122000  1.83027000  1
  Mo  Mo15  1  3.76458000  5.42430000  1.76589000  1
