# generated using pymatgen
data_Mo
_symmetry_space_group_name_H-M   'P 1'
_cell_length_a   7.28778040
_cell_length_b   7.28778040
_cell_length_c   3.64389014
_cell_angle_alpha   90.00000000
_cell_angle_beta   90.00000000
_cell_angle_gamma   90.00000000
_symmetry_Int_Tables_number   1
_chemical_formula_structural   Mo
_chemical_formula_sum   Mo16
_cell_volume   193.53335759
_cell_formula_units_Z   16
loop_
 _symmetry_equiv_pos_site_id
 _symmetry_equiv_pos_as_xyz
  1  'x, y, z'
loop_
 _atom_site_type_symbol
 _atom_site_label
 _atom_site_symmetry_multiplicity
 _atom_site_fract_x
 _atom_site_fract_y
 _atom_site_fract_z
 _atom_site_occupancy
  Mo  Mo0  1  0.06864740  7.29613000  0.03978360  1
  Mo  Mo1  1  1.88036000  1.84284000  3.61420000  1
  Mo  Mo2  1  1.85949000  -0.01418750  1.80731000  1
  Mo  Mo3  1  7.12166000  1.86381000  1.79387000  1
  Mo  Mo4  1  3.61331000  -0.06714220  3.59430000  1
  Mo  Mo5  1  5.35982000  1.83992000  3.71324000  1
  Mo  Mo6  1  5.42886000  7.28510000  1.80264000  1
  Mo  Mo7  1  3.67833000  1.76780000  1.88766000  1
  Mo  Mo8  1  7.20565000  3.72977000  3.61948000  1
  Mo  Mo9  1  1.77944000  5.37180000  3.66673000  1
  Mo  Mo10  1  1.78727000  3.55104000  1.71255000  1
  Mo  Mo11  1  7.26325000  5.47590000  1.81449000  1
  Mo  Mo12  1  3.69397000  3.69712000  0.05255970  1
  Mo  Mo13  1  5.51188000  5.49454000  3.63594000  1
  Mo  Mo14  1  5.56550000  3.58257000  1.78682000  1
  Mo  Mo15  1  3.69432000  5.50700000  1.85821000  1
