# generated using pymatgen
data_Mo
_symmetry_space_group_name_H-M   'P 1'
_cell_length_a   7.28778040
_cell_length_b   7.28778040
_cell_length_c   3.64389014
_cell_angle_alpha   90.00000000
_cell_angle_beta   90.00000000
_cell_angle_gamma   90.00000000
_symmetry_Int_Tables_number   1
_chemical_formula_structural   Mo
_chemical_formula_sum   Mo16
_cell_volume   193.53335759
_cell_formula_units_Z   16
loop_
 _symmetry_equiv_pos_site_id
 _symmetry_equiv_pos_as_xyz
  1  'x, y, z'
loop_
 _atom_site_type_symbol
 _atom_site_label
 _atom_site_symmetry_multiplicity
 _atom_site_fract_x
 _atom_site_fract_y
 _atom_site_fract_z
 _atom_site_occupancy
  Mo  Mo0  1  0.13023000  7.28575000  0.00835376  1
  Mo  Mo1  1  1.80138000  1.86331000  3.63528000  1
  Mo  Mo2  1  1.84583000  -0.17699400  1.86207000  1
  Mo  Mo3  1  7.20176000  1.85314000  1.83459000  1
  Mo  Mo4  1  3.58295000  0.05501780  3.68847000  1
  Mo  Mo5  1  5.47543000  1.77689000  3.62405000  1
  Mo  Mo6  1  5.48324000  7.31816000  1.78190000  1
  Mo  Mo7  1  3.62339000  1.71729000  1.87621000  1
  Mo  Mo8  1  7.23675000  3.67442000  3.67022000  1
  Mo  Mo9  1  1.99886000  5.51707000  3.67484000  1
  Mo  Mo10  1  1.82765000  3.77441000  1.88874000  1
  Mo  Mo11  1  7.22790000  5.39684000  1.78981000  1
  Mo  Mo12  1  3.64723000  3.60724000  -0.01691510  1
  Mo  Mo13  1  5.37036000  5.47116000  3.54722000  1
  Mo  Mo14  1  5.41633000  3.57221000  1.70735000  1
  Mo  Mo15  1  3.64250000  5.51808000  1.82760000  1
