# generated using pymatgen
data_Mo
_symmetry_space_group_name_H-M   'P 1'
_cell_length_a   7.28778040
_cell_length_b   7.28778040
_cell_length_c   3.64389014
_cell_angle_alpha   90.00000000
_cell_angle_beta   90.00000000
_cell_angle_gamma   90.00000000
_symmetry_Int_Tables_number   1
_chemical_formula_structural   Mo
_chemical_formula_sum   Mo16
_cell_volume   193.53335759
_cell_formula_units_Z   16
loop_
 _symmetry_equiv_pos_site_id
 _symmetry_equiv_pos_as_xyz
  1  'x, y, z'
loop_
 _atom_site_type_symbol
 _atom_site_label
 _atom_site_symmetry_multiplicity
 _atom_site_fract_x
 _atom_site_fract_y
 _atom_site_fract_z
 _atom_site_occupancy
  Mo  Mo0  1  -0.01782610  7.34690000  -0.01172090  1
  Mo  Mo1  1  1.80706000  1.85873000  3.65962000  1
  Mo  Mo2  1  1.87138000  -0.03714090  1.93222000  1
  Mo  Mo3  1  7.37378000  1.77153000  1.77478000  1
  Mo  Mo4  1  3.62762000  -0.07159860  3.58782000  1
  Mo  Mo5  1  5.43937000  1.80563000  3.67432000  1
  Mo  Mo6  1  5.46758000  7.21899000  1.75430000  1
  Mo  Mo7  1  3.64860000  1.78495000  1.78843000  1
  Mo  Mo8  1  7.29081000  3.62482000  3.62696000  1
  Mo  Mo9  1  1.87086000  5.49702000  3.58326000  1
  Mo  Mo10  1  1.85085000  3.74942000  1.81042000  1
  Mo  Mo11  1  7.28718000  5.42681000  1.83784000  1
  Mo  Mo12  1  3.63429000  3.77232000  0.09912280  1
  Mo  Mo13  1  5.43650000  5.47131000  3.61835000  1
  Mo  Mo14  1  5.41689000  3.52980000  1.82009000  1
  Mo  Mo15  1  3.50683000  5.47450000  1.84398000  1
