# generated using pymatgen
data_Mo
_symmetry_space_group_name_H-M   'P 1'
_cell_length_a   7.28778040
_cell_length_b   7.28778040
_cell_length_c   3.64389014
_cell_angle_alpha   90.00000000
_cell_angle_beta   90.00000000
_cell_angle_gamma   90.00000000
_symmetry_Int_Tables_number   1
_chemical_formula_structural   Mo
_chemical_formula_sum   Mo16
_cell_volume   193.53335759
_cell_formula_units_Z   16
loop_
 _symmetry_equiv_pos_site_id
 _symmetry_equiv_pos_as_xyz
  1  'x, y, z'
loop_
 _atom_site_type_symbol
 _atom_site_label
 _atom_site_symmetry_multiplicity
 _atom_site_fract_x
 _atom_site_fract_y
 _atom_site_fract_z
 _atom_site_occupancy
  Mo  Mo0  1  0.08470820  7.28550000  -0.01375170  1
  Mo  Mo1  1  1.88737000  1.81551000  3.56306000  1
  Mo  Mo2  1  1.92752000  -0.04654770  1.74881000  1
  Mo  Mo3  1  7.26601000  1.81437000  1.91802000  1
  Mo  Mo4  1  3.67974000  -0.01230080  3.59310000  1
  Mo  Mo5  1  5.40461000  1.72379000  3.72579000  1
  Mo  Mo6  1  5.34064000  7.34061000  1.81157000  1
  Mo  Mo7  1  3.60587000  1.82343000  1.74549000  1
  Mo  Mo8  1  7.29788000  3.61141000  3.70720000  1
  Mo  Mo9  1  1.81259000  5.39346000  3.60879000  1
  Mo  Mo10  1  1.79914000  3.65251000  1.81655000  1
  Mo  Mo11  1  7.32993000  5.50494000  1.84681000  1
  Mo  Mo12  1  3.64387000  3.69671000  -0.00029246  1
  Mo  Mo13  1  5.44798000  5.55462000  3.73807000  1
  Mo  Mo14  1  5.40687000  3.58048000  1.82880000  1
  Mo  Mo15  1  3.57705000  5.48553000  1.76178000  1
