# generated using pymatgen
data_Mo
_symmetry_space_group_name_H-M   'P 1'
_cell_length_a   7.28778040
_cell_length_b   7.28778040
_cell_length_c   3.64389014
_cell_angle_alpha   90.00000000
_cell_angle_beta   90.00000000
_cell_angle_gamma   90.00000000
_symmetry_Int_Tables_number   1
_chemical_formula_structural   Mo
_chemical_formula_sum   Mo16
_cell_volume   193.53335759
_cell_formula_units_Z   16
loop_
 _symmetry_equiv_pos_site_id
 _symmetry_equiv_pos_as_xyz
  1  'x, y, z'
loop_
 _atom_site_type_symbol
 _atom_site_label
 _atom_site_symmetry_multiplicity
 _atom_site_fract_x
 _atom_site_fract_y
 _atom_site_fract_z
 _atom_site_occupancy
  Mo  Mo0  1  0.04372800  7.32216000  -0.02334080  1
  Mo  Mo1  1  1.79342000  1.78735000  3.70453000  1
  Mo  Mo2  1  1.73013000  -0.01156220  1.79582000  1
  Mo  Mo3  1  7.36283000  1.76873000  1.76754000  1
  Mo  Mo4  1  3.65472000  -0.04912340  3.60621000  1
  Mo  Mo5  1  5.39681000  1.83141000  3.61832000  1
  Mo  Mo6  1  5.57921000  7.32414000  1.82796000  1
  Mo  Mo7  1  3.44661000  1.97988000  1.81380000  1
  Mo  Mo8  1  7.25804000  3.54058000  3.67569000  1
  Mo  Mo9  1  1.81431000  5.44404000  3.72531000  1
  Mo  Mo10  1  1.83109000  3.61409000  1.85499000  1
  Mo  Mo11  1  7.26567000  5.46733000  1.79480000  1
  Mo  Mo12  1  3.60727000  3.66260000  0.08959410  1
  Mo  Mo13  1  5.58699000  5.44723000  3.60797000  1
  Mo  Mo14  1  5.47785000  3.71743000  1.78265000  1
  Mo  Mo15  1  3.66311000  5.37769000  1.75794000  1
