# generated using pymatgen
data_Mo
_symmetry_space_group_name_H-M   'P 1'
_cell_length_a   7.28778040
_cell_length_b   7.28778040
_cell_length_c   3.64389014
_cell_angle_alpha   90.00000000
_cell_angle_beta   90.00000000
_cell_angle_gamma   90.00000000
_symmetry_Int_Tables_number   1
_chemical_formula_structural   Mo
_chemical_formula_sum   Mo16
_cell_volume   193.53335759
_cell_formula_units_Z   16
loop_
 _symmetry_equiv_pos_site_id
 _symmetry_equiv_pos_as_xyz
  1  'x, y, z'
loop_
 _atom_site_type_symbol
 _atom_site_label
 _atom_site_symmetry_multiplicity
 _atom_site_fract_x
 _atom_site_fract_y
 _atom_site_fract_z
 _atom_site_occupancy
  Mo  Mo0  1  -0.07007700  7.26299000  -0.07639550  1
  Mo  Mo1  1  1.76571000  1.84857000  3.61741000  1
  Mo  Mo2  1  1.77970000  0.01924770  1.82776000  1
  Mo  Mo3  1  7.38917000  1.74515000  1.77927000  1
  Mo  Mo4  1  3.70295000  0.13145400  3.65130000  1
  Mo  Mo5  1  5.38808000  1.81920000  3.70809000  1
  Mo  Mo6  1  5.52297000  7.19176000  1.82605000  1
  Mo  Mo7  1  3.68407000  1.89351000  1.79749000  1
  Mo  Mo8  1  7.27466000  3.70134000  3.69608000  1
  Mo  Mo9  1  1.80642000  5.46591000  3.64634000  1
  Mo  Mo10  1  1.79730000  3.64100000  1.91133000  1
  Mo  Mo11  1  7.29495000  5.44180000  1.80378000  1
  Mo  Mo12  1  3.64710000  3.57584000  0.05480240  1
  Mo  Mo13  1  5.50586000  5.46024000  3.60531000  1
  Mo  Mo14  1  5.40017000  3.55780000  1.75118000  1
  Mo  Mo15  1  3.62275000  5.46820000  1.79998000  1
