# generated using pymatgen
data_Mo
_symmetry_space_group_name_H-M   'P 1'
_cell_length_a   7.28778040
_cell_length_b   7.28778040
_cell_length_c   3.64389014
_cell_angle_alpha   90.00000000
_cell_angle_beta   90.00000000
_cell_angle_gamma   90.00000000
_symmetry_Int_Tables_number   1
_chemical_formula_structural   Mo
_chemical_formula_sum   Mo16
_cell_volume   193.53335759
_cell_formula_units_Z   16
loop_
 _symmetry_equiv_pos_site_id
 _symmetry_equiv_pos_as_xyz
  1  'x, y, z'
loop_
 _atom_site_type_symbol
 _atom_site_label
 _atom_site_symmetry_multiplicity
 _atom_site_fract_x
 _atom_site_fract_y
 _atom_site_fract_z
 _atom_site_occupancy
  Mo  Mo0  1  -0.05616320  7.27843000  -0.06260380  1
  Mo  Mo1  1  1.83493000  1.85392000  3.61879000  1
  Mo  Mo2  1  1.90260000  0.03460000  1.82093000  1
  Mo  Mo3  1  7.34159000  1.73069000  1.76489000  1
  Mo  Mo4  1  3.59504000  0.09229540  3.65543000  1
  Mo  Mo5  1  5.32123000  1.82541000  3.69519000  1
  Mo  Mo6  1  5.36854000  7.20343000  1.89199000  1
  Mo  Mo7  1  3.58860000  1.83216000  1.74911000  1
  Mo  Mo8  1  7.29727000  3.62381000  3.71289000  1
  Mo  Mo9  1  1.84581000  5.48560000  3.57491000  1
  Mo  Mo10  1  1.88942000  3.67250000  1.84857000  1
  Mo  Mo11  1  7.22683000  5.35303000  1.87081000  1
  Mo  Mo12  1  3.73804000  3.72935000  -0.01674380  1
  Mo  Mo13  1  5.53465000  5.44397000  3.65980000  1
  Mo  Mo14  1  5.44617000  3.58514000  1.75509000  1
  Mo  Mo15  1  3.63722000  5.47967000  1.86072000  1
