# generated using pymatgen
data_Mo
_symmetry_space_group_name_H-M   'P 1'
_cell_length_a   7.27806742
_cell_length_b   7.27806742
_cell_length_c   3.63903379
_cell_angle_alpha   90.00000000
_cell_angle_beta   90.00000000
_cell_angle_gamma   90.00000000
_symmetry_Int_Tables_number   1
_chemical_formula_structural   Mo
_chemical_formula_sum   Mo16
_cell_volume   192.76058556
_cell_formula_units_Z   16
loop_
 _symmetry_equiv_pos_site_id
 _symmetry_equiv_pos_as_xyz
  1  'x, y, z'
loop_
 _atom_site_type_symbol
 _atom_site_label
 _atom_site_symmetry_multiplicity
 _atom_site_fract_x
 _atom_site_fract_y
 _atom_site_fract_z
 _atom_site_occupancy
  Mo  Mo0  1  0.00964167  7.30278000  3.64534000  1
  Mo  Mo1  1  1.83753000  1.81866000  -0.02374290  1
  Mo  Mo2  1  1.82400000  7.26304000  1.81152000  1
  Mo  Mo3  1  7.26886000  1.82510000  1.81986000  1
  Mo  Mo4  1  3.65302000  7.27880000  -0.02009040  1
  Mo  Mo5  1  5.46836000  1.82585000  0.00386448  1
  Mo  Mo6  1  5.44834000  -0.03201850  1.79263000  1
  Mo  Mo7  1  3.64176000  1.83398000  1.82506000  1
  Mo  Mo8  1  7.25912000  3.63273000  3.62851000  1
  Mo  Mo9  1  1.82787000  5.45306000  3.66549000  1
  Mo  Mo10  1  1.80678000  3.65328000  1.85184000  1
  Mo  Mo11  1  0.00295339  5.45222000  1.82890000  1
  Mo  Mo12  1  3.63564000  3.63280000  3.62535000  1
  Mo  Mo13  1  5.45387000  5.47651000  3.65389000  1
  Mo  Mo14  1  5.44333000  3.63366000  1.81647000  1
  Mo  Mo15  1  3.64294000  5.45160000  1.82616000  1
