# generated using pymatgen
data_Mo
_symmetry_space_group_name_H-M   'P 1'
_cell_length_a   7.28778040
_cell_length_b   7.28778040
_cell_length_c   3.64389014
_cell_angle_alpha   90.00000000
_cell_angle_beta   90.00000000
_cell_angle_gamma   90.00000000
_symmetry_Int_Tables_number   1
_chemical_formula_structural   Mo
_chemical_formula_sum   Mo16
_cell_volume   193.53335759
_cell_formula_units_Z   16
loop_
 _symmetry_equiv_pos_site_id
 _symmetry_equiv_pos_as_xyz
  1  'x, y, z'
loop_
 _atom_site_type_symbol
 _atom_site_label
 _atom_site_symmetry_multiplicity
 _atom_site_fract_x
 _atom_site_fract_y
 _atom_site_fract_z
 _atom_site_occupancy
  Mo  Mo0  1  -0.12249800  7.25228000  0.02032760  1
  Mo  Mo1  1  1.79721000  1.79695000  3.70881000  1
  Mo  Mo2  1  1.89665000  -0.05152610  1.89483000  1
  Mo  Mo3  1  7.28547000  1.83315000  1.82411000  1
  Mo  Mo4  1  3.64792000  0.01523950  3.64551000  1
  Mo  Mo5  1  5.41503000  1.82932000  3.58579000  1
  Mo  Mo6  1  5.35699000  7.32503000  1.79378000  1
  Mo  Mo7  1  3.60448000  1.80015000  1.75929000  1
  Mo  Mo8  1  7.39674000  3.61704000  3.73124000  1
  Mo  Mo9  1  1.78342000  5.46594000  3.64827000  1
  Mo  Mo10  1  1.76699000  3.61320000  1.90594000  1
  Mo  Mo11  1  7.41041000  5.48962000  1.82176000  1
  Mo  Mo12  1  3.58458000  3.59916000  -0.03750600  1
  Mo  Mo13  1  5.58280000  5.47327000  3.62176000  1
  Mo  Mo14  1  5.49554000  3.73523000  1.79471000  1
  Mo  Mo15  1  3.61004000  5.42994000  1.68116000  1
