# generated using pymatgen
data_Mo
_symmetry_space_group_name_H-M   'P 1'
_cell_length_a   7.28778040
_cell_length_b   7.28778040
_cell_length_c   3.64389014
_cell_angle_alpha   90.00000000
_cell_angle_beta   90.00000000
_cell_angle_gamma   90.00000000
_symmetry_Int_Tables_number   1
_chemical_formula_structural   Mo
_chemical_formula_sum   Mo16
_cell_volume   193.53335759
_cell_formula_units_Z   16
loop_
 _symmetry_equiv_pos_site_id
 _symmetry_equiv_pos_as_xyz
  1  'x, y, z'
loop_
 _atom_site_type_symbol
 _atom_site_label
 _atom_site_symmetry_multiplicity
 _atom_site_fract_x
 _atom_site_fract_y
 _atom_site_fract_z
 _atom_site_occupancy
  Mo  Mo0  1  -0.07743440  7.31751000  0.02909330  1
  Mo  Mo1  1  1.84491000  1.71720000  3.61369000  1
  Mo  Mo2  1  1.86496000  0.04854010  1.82752000  1
  Mo  Mo3  1  7.25096000  1.75491000  1.82037000  1
  Mo  Mo4  1  3.67258000  -0.03384710  3.64861000  1
  Mo  Mo5  1  5.37600000  1.84421000  3.73052000  1
  Mo  Mo6  1  5.40616000  7.21161000  1.75653000  1
  Mo  Mo7  1  3.50858000  1.84131000  1.82762000  1
  Mo  Mo8  1  7.27741000  3.65491000  3.62428000  1
  Mo  Mo9  1  1.84172000  5.56103000  3.61703000  1
  Mo  Mo10  1  1.90679000  3.64533000  1.76916000  1
  Mo  Mo11  1  7.26014000  5.59071000  1.84198000  1
  Mo  Mo12  1  3.70807000  3.68813000  0.03088460  1
  Mo  Mo13  1  5.52191000  5.36167000  3.70794000  1
  Mo  Mo14  1  5.38154000  3.64023000  1.80181000  1
  Mo  Mo15  1  3.76748000  5.38053000  1.75273000  1
