# generated using pymatgen
data_Mo
_symmetry_space_group_name_H-M   'P 1'
_cell_length_a   7.28778040
_cell_length_b   7.28778040
_cell_length_c   3.64389014
_cell_angle_alpha   90.00000000
_cell_angle_beta   90.00000000
_cell_angle_gamma   90.00000000
_symmetry_Int_Tables_number   1
_chemical_formula_structural   Mo
_chemical_formula_sum   Mo16
_cell_volume   193.53335759
_cell_formula_units_Z   16
loop_
 _symmetry_equiv_pos_site_id
 _symmetry_equiv_pos_as_xyz
  1  'x, y, z'
loop_
 _atom_site_type_symbol
 _atom_site_label
 _atom_site_symmetry_multiplicity
 _atom_site_fract_x
 _atom_site_fract_y
 _atom_site_fract_z
 _atom_site_occupancy
  Mo  Mo0  1  0.00743221  7.29656000  -0.09050170  1
  Mo  Mo1  1  1.86732000  1.83277000  3.62151000  1
  Mo  Mo2  1  1.80413000  -0.01010070  1.75886000  1
  Mo  Mo3  1  7.19786000  1.86389000  1.87310000  1
  Mo  Mo4  1  3.69316000  0.02019070  3.67214000  1
  Mo  Mo5  1  5.40262000  1.73442000  3.71882000  1
  Mo  Mo6  1  5.44374000  7.31733000  1.80854000  1
  Mo  Mo7  1  3.59060000  1.83076000  1.87546000  1
  Mo  Mo8  1  7.18716000  3.67244000  3.62205000  1
  Mo  Mo9  1  1.85394000  5.29577000  3.64879000  1
  Mo  Mo10  1  1.82961000  3.58745000  1.76224000  1
  Mo  Mo11  1  7.29329000  5.45773000  1.72538000  1
  Mo  Mo12  1  3.69801000  3.63099000  0.02977330  1
  Mo  Mo13  1  5.47552000  5.60282000  3.61622000  1
  Mo  Mo14  1  5.52373000  3.62421000  1.85945000  1
  Mo  Mo15  1  3.64367000  5.46678000  1.89795000  1
