# generated using pymatgen
data_Mo
_symmetry_space_group_name_H-M   'P 1'
_cell_length_a   7.28778040
_cell_length_b   7.28778040
_cell_length_c   3.64389014
_cell_angle_alpha   90.00000000
_cell_angle_beta   90.00000000
_cell_angle_gamma   90.00000000
_symmetry_Int_Tables_number   1
_chemical_formula_structural   Mo
_chemical_formula_sum   Mo16
_cell_volume   193.53335759
_cell_formula_units_Z   16
loop_
 _symmetry_equiv_pos_site_id
 _symmetry_equiv_pos_as_xyz
  1  'x, y, z'
loop_
 _atom_site_type_symbol
 _atom_site_label
 _atom_site_symmetry_multiplicity
 _atom_site_fract_x
 _atom_site_fract_y
 _atom_site_fract_z
 _atom_site_occupancy
  Mo  Mo0  1  -0.02720710  7.27469000  0.02828850  1
  Mo  Mo1  1  1.78891000  1.89857000  3.66262000  1
  Mo  Mo2  1  1.80407000  0.03814210  1.87255000  1
  Mo  Mo3  1  7.34529000  1.67199000  1.75704000  1
  Mo  Mo4  1  3.68977000  0.09048560  3.54896000  1
  Mo  Mo5  1  5.42239000  1.84361000  3.68773000  1
  Mo  Mo6  1  5.53154000  7.22243000  1.80182000  1
  Mo  Mo7  1  3.62548000  1.89482000  1.73649000  1
  Mo  Mo8  1  7.27191000  3.66814000  3.65197000  1
  Mo  Mo9  1  1.70107000  5.43270000  3.63821000  1
  Mo  Mo10  1  1.78807000  3.60706000  1.79264000  1
  Mo  Mo11  1  7.14657000  5.48010000  1.88862000  1
  Mo  Mo12  1  3.74905000  3.67041000  0.06912630  1
  Mo  Mo13  1  5.54590000  5.44777000  3.58883000  1
  Mo  Mo14  1  5.51674000  3.58672000  1.83764000  1
  Mo  Mo15  1  3.61223000  5.39637000  1.83724000  1
