# generated using pymatgen
data_Mo
_symmetry_space_group_name_H-M   'P 1'
_cell_length_a   7.28778040
_cell_length_b   7.28778040
_cell_length_c   3.64389014
_cell_angle_alpha   90.00000000
_cell_angle_beta   90.00000000
_cell_angle_gamma   90.00000000
_symmetry_Int_Tables_number   1
_chemical_formula_structural   Mo
_chemical_formula_sum   Mo16
_cell_volume   193.53335759
_cell_formula_units_Z   16
loop_
 _symmetry_equiv_pos_site_id
 _symmetry_equiv_pos_as_xyz
  1  'x, y, z'
loop_
 _atom_site_type_symbol
 _atom_site_label
 _atom_site_symmetry_multiplicity
 _atom_site_fract_x
 _atom_site_fract_y
 _atom_site_fract_z
 _atom_site_occupancy
  Mo  Mo0  1  0.02980000  7.23209000  -0.09044450  1
  Mo  Mo1  1  1.73716000  1.82476000  3.72157000  1
  Mo  Mo2  1  1.88586000  -0.01965780  1.86647000  1
  Mo  Mo3  1  7.40983000  1.92846000  1.85458000  1
  Mo  Mo4  1  3.59019000  -0.04010890  3.66508000  1
  Mo  Mo5  1  5.52196000  1.74450000  3.66236000  1
  Mo  Mo6  1  5.45581000  7.37078000  1.83211000  1
  Mo  Mo7  1  3.61063000  1.73160000  1.79489000  1
  Mo  Mo8  1  7.22310000  3.72253000  3.67348000  1
  Mo  Mo9  1  1.86037000  5.39406000  3.64105000  1
  Mo  Mo10  1  1.87681000  3.75543000  1.77078000  1
  Mo  Mo11  1  7.29524000  5.40209000  1.81822000  1
  Mo  Mo12  1  3.63921000  3.62134000  -0.05545970  1
  Mo  Mo13  1  5.35213000  5.48182000  3.60930000  1
  Mo  Mo14  1  5.36724000  3.52600000  1.84364000  1
  Mo  Mo15  1  3.65645000  5.54831000  1.79216000  1
