# generated using pymatgen
data_Mo
_symmetry_space_group_name_H-M   'P 1'
_cell_length_a   7.28778040
_cell_length_b   7.28778040
_cell_length_c   3.64389014
_cell_angle_alpha   90.00000000
_cell_angle_beta   90.00000000
_cell_angle_gamma   90.00000000
_symmetry_Int_Tables_number   1
_chemical_formula_structural   Mo
_chemical_formula_sum   Mo16
_cell_volume   193.53335759
_cell_formula_units_Z   16
loop_
 _symmetry_equiv_pos_site_id
 _symmetry_equiv_pos_as_xyz
  1  'x, y, z'
loop_
 _atom_site_type_symbol
 _atom_site_label
 _atom_site_symmetry_multiplicity
 _atom_site_fract_x
 _atom_site_fract_y
 _atom_site_fract_z
 _atom_site_occupancy
  Mo  Mo0  1  0.04266890  7.28822000  0.00173053  1
  Mo  Mo1  1  1.83101000  1.87657000  3.64018000  1
  Mo  Mo2  1  1.93148000  -0.04875600  1.82904000  1
  Mo  Mo3  1  7.34694000  1.74099000  1.73053000  1
  Mo  Mo4  1  3.61772000  -0.10233700  3.59311000  1
  Mo  Mo5  1  5.26679000  1.83433000  3.71477000  1
  Mo  Mo6  1  5.41752000  7.22205000  1.87205000  1
  Mo  Mo7  1  3.55613000  1.81084000  1.84493000  1
  Mo  Mo8  1  7.31968000  3.73190000  3.58464000  1
  Mo  Mo9  1  1.83736000  5.47352000  3.57927000  1
  Mo  Mo10  1  1.84666000  3.61115000  1.77521000  1
  Mo  Mo11  1  7.21201000  5.56591000  1.80938000  1
  Mo  Mo12  1  3.70841000  3.67824000  0.09992650  1
  Mo  Mo13  1  5.49571000  5.51075000  3.57922000  1
  Mo  Mo14  1  5.42542000  3.64410000  1.84975000  1
  Mo  Mo15  1  3.65627000  5.38654000  1.89604000  1
