# generated using pymatgen
data_Mo
_symmetry_space_group_name_H-M   'P 1'
_cell_length_a   7.28778040
_cell_length_b   7.28778040
_cell_length_c   3.64389014
_cell_angle_alpha   90.00000000
_cell_angle_beta   90.00000000
_cell_angle_gamma   90.00000000
_symmetry_Int_Tables_number   1
_chemical_formula_structural   Mo
_chemical_formula_sum   Mo16
_cell_volume   193.53335759
_cell_formula_units_Z   16
loop_
 _symmetry_equiv_pos_site_id
 _symmetry_equiv_pos_as_xyz
  1  'x, y, z'
loop_
 _atom_site_type_symbol
 _atom_site_label
 _atom_site_symmetry_multiplicity
 _atom_site_fract_x
 _atom_site_fract_y
 _atom_site_fract_z
 _atom_site_occupancy
  Mo  Mo0  1  0.01859180  7.26037000  -0.06222130  1
  Mo  Mo1  1  1.99933000  1.74992000  3.58631000  1
  Mo  Mo2  1  1.79889000  -0.02216920  1.75958000  1
  Mo  Mo3  1  7.35320000  1.78123000  1.81989000  1
  Mo  Mo4  1  3.62103000  -0.05062190  3.69421000  1
  Mo  Mo5  1  5.37991000  1.75022000  3.61775000  1
  Mo  Mo6  1  5.37532000  7.26069000  1.80068000  1
  Mo  Mo7  1  3.59526000  1.89322000  1.88198000  1
  Mo  Mo8  1  7.24469000  3.68146000  3.59323000  1
  Mo  Mo9  1  1.77955000  5.40798000  3.73700000  1
  Mo  Mo10  1  1.87366000  3.67800000  1.91318000  1
  Mo  Mo11  1  7.32306000  5.59248000  1.77486000  1
  Mo  Mo12  1  3.58689000  3.62064000  0.02067690  1
  Mo  Mo13  1  5.44935000  5.49293000  3.68765000  1
  Mo  Mo14  1  5.40050000  3.76223000  1.78074000  1
  Mo  Mo15  1  3.71254000  5.36542000  1.79428000  1
