# generated using pymatgen
data_Mo
_symmetry_space_group_name_H-M   'P 1'
_cell_length_a   7.28778040
_cell_length_b   7.28778040
_cell_length_c   3.64389014
_cell_angle_alpha   90.00000000
_cell_angle_beta   90.00000000
_cell_angle_gamma   90.00000000
_symmetry_Int_Tables_number   1
_chemical_formula_structural   Mo
_chemical_formula_sum   Mo16
_cell_volume   193.53335759
_cell_formula_units_Z   16
loop_
 _symmetry_equiv_pos_site_id
 _symmetry_equiv_pos_as_xyz
  1  'x, y, z'
loop_
 _atom_site_type_symbol
 _atom_site_label
 _atom_site_symmetry_multiplicity
 _atom_site_fract_x
 _atom_site_fract_y
 _atom_site_fract_z
 _atom_site_occupancy
  Mo  Mo0  1  -0.00181913  7.27508000  0.11611100  1
  Mo  Mo1  1  1.82498000  1.83616000  3.56292000  1
  Mo  Mo2  1  1.87456000  -0.00429949  1.69752000  1
  Mo  Mo3  1  7.24287000  1.80983000  1.76861000  1
  Mo  Mo4  1  3.72019000  -0.01031360  3.63175000  1
  Mo  Mo5  1  5.57430000  1.74531000  3.62108000  1
  Mo  Mo6  1  5.34806000  7.30310000  1.88387000  1
  Mo  Mo7  1  3.78550000  1.71371000  1.88660000  1
  Mo  Mo8  1  7.16403000  3.66650000  3.61539000  1
  Mo  Mo9  1  1.88628000  5.52773000  3.58579000  1
  Mo  Mo10  1  1.78879000  3.63174000  1.84699000  1
  Mo  Mo11  1  7.30249000  5.39255000  1.76322000  1
  Mo  Mo12  1  3.69688000  3.70570000  0.03847110  1
  Mo  Mo13  1  5.33639000  5.46042000  3.70518000  1
  Mo  Mo14  1  5.41714000  3.64820000  1.80708000  1
  Mo  Mo15  1  3.55115000  5.52257000  1.86920000  1
