# generated using pymatgen
data_Mo
_symmetry_space_group_name_H-M   'P 1'
_cell_length_a   7.28778040
_cell_length_b   7.28778040
_cell_length_c   3.64389014
_cell_angle_alpha   90.00000000
_cell_angle_beta   90.00000000
_cell_angle_gamma   90.00000000
_symmetry_Int_Tables_number   1
_chemical_formula_structural   Mo
_chemical_formula_sum   Mo16
_cell_volume   193.53335759
_cell_formula_units_Z   16
loop_
 _symmetry_equiv_pos_site_id
 _symmetry_equiv_pos_as_xyz
  1  'x, y, z'
loop_
 _atom_site_type_symbol
 _atom_site_label
 _atom_site_symmetry_multiplicity
 _atom_site_fract_x
 _atom_site_fract_y
 _atom_site_fract_z
 _atom_site_occupancy
  Mo  Mo0  1  -0.01082820  7.25001000  -0.14862200  1
  Mo  Mo1  1  1.75080000  1.73861000  3.73080000  1
  Mo  Mo2  1  1.73768000  0.00319658  1.85300000  1
  Mo  Mo3  1  7.22195000  1.85885000  1.85682000  1
  Mo  Mo4  1  3.76951000  0.03675770  3.73691000  1
  Mo  Mo5  1  5.57339000  1.83676000  3.56403000  1
  Mo  Mo6  1  5.49332000  7.30109000  1.72642000  1
  Mo  Mo7  1  3.68334000  1.74590000  1.86242000  1
  Mo  Mo8  1  7.30162000  3.61075000  3.62273000  1
  Mo  Mo9  1  1.86042000  5.53758000  3.63991000  1
  Mo  Mo10  1  1.76168000  3.73253000  1.84913000  1
  Mo  Mo11  1  7.24248000  5.43103000  1.81213000  1
  Mo  Mo12  1  3.66212000  3.62503000  0.01018090  1
  Mo  Mo13  1  5.36968000  5.39554000  3.61337000  1
  Mo  Mo14  1  5.48174000  3.54548000  1.83245000  1
  Mo  Mo15  1  3.61285000  5.57491000  1.83809000  1
