# generated using pymatgen
data_Mo
_symmetry_space_group_name_H-M   'P 1'
_cell_length_a   7.28778040
_cell_length_b   7.28778040
_cell_length_c   3.64389014
_cell_angle_alpha   90.00000000
_cell_angle_beta   90.00000000
_cell_angle_gamma   90.00000000
_symmetry_Int_Tables_number   1
_chemical_formula_structural   Mo
_chemical_formula_sum   Mo16
_cell_volume   193.53335759
_cell_formula_units_Z   16
loop_
 _symmetry_equiv_pos_site_id
 _symmetry_equiv_pos_as_xyz
  1  'x, y, z'
loop_
 _atom_site_type_symbol
 _atom_site_label
 _atom_site_symmetry_multiplicity
 _atom_site_fract_x
 _atom_site_fract_y
 _atom_site_fract_z
 _atom_site_occupancy
  Mo  Mo0  1  0.10089800  7.34650000  0.00240321  1
  Mo  Mo1  1  1.91642000  1.80323000  3.61203000  1
  Mo  Mo2  1  1.78253000  0.01792530  1.79356000  1
  Mo  Mo3  1  7.33519000  1.79805000  1.85879000  1
  Mo  Mo4  1  3.56508000  -0.10373800  3.63632000  1
  Mo  Mo5  1  5.41630000  1.71911000  3.64925000  1
  Mo  Mo6  1  5.50009000  7.30983000  1.97233000  1
  Mo  Mo7  1  3.57712000  1.80983000  1.75250000  1
  Mo  Mo8  1  7.19572000  3.58045000  3.65302000  1
  Mo  Mo9  1  1.78513000  5.44461000  3.62710000  1
  Mo  Mo10  1  1.89050000  3.61113000  1.76034000  1
  Mo  Mo11  1  7.17447000  5.48271000  1.84461000  1
  Mo  Mo12  1  3.74642000  3.64024000  -0.04055440  1
  Mo  Mo13  1  5.51491000  5.55381000  3.68367000  1
  Mo  Mo14  1  5.39767000  3.71507000  1.83775000  1
  Mo  Mo15  1  3.61333000  5.49523000  1.75665000  1
