# generated using pymatgen
data_Mo
_symmetry_space_group_name_H-M   'P 1'
_cell_length_a   7.27806742
_cell_length_b   7.27806742
_cell_length_c   3.63903379
_cell_angle_alpha   90.00000000
_cell_angle_beta   90.00000000
_cell_angle_gamma   90.00000000
_symmetry_Int_Tables_number   1
_chemical_formula_structural   Mo
_chemical_formula_sum   Mo16
_cell_volume   192.76058556
_cell_formula_units_Z   16
loop_
 _symmetry_equiv_pos_site_id
 _symmetry_equiv_pos_as_xyz
  1  'x, y, z'
loop_
 _atom_site_type_symbol
 _atom_site_label
 _atom_site_symmetry_multiplicity
 _atom_site_fract_x
 _atom_site_fract_y
 _atom_site_fract_z
 _atom_site_occupancy
  Mo  Mo0  1  0.01393340  7.28726000  3.64005000  1
  Mo  Mo1  1  1.79883000  1.82340000  0.01583790  1
  Mo  Mo2  1  1.84292000  7.26983000  1.80354000  1
  Mo  Mo3  1  7.26030000  1.83752000  1.81643000  1
  Mo  Mo4  1  3.64016000  7.27005000  -0.02471600  1
  Mo  Mo5  1  5.46241000  1.81830000  -0.02745600  1
  Mo  Mo6  1  5.44173000  -0.00729409  1.79990000  1
  Mo  Mo7  1  3.63601000  1.81612000  1.80566000  1
  Mo  Mo8  1  7.28901000  3.63044000  3.66095000  1
  Mo  Mo9  1  1.79910000  5.46753000  3.65749000  1
  Mo  Mo10  1  1.84061000  3.64394000  1.81205000  1
  Mo  Mo11  1  -0.00293321  5.44957000  1.85547000  1
  Mo  Mo12  1  3.62822000  3.63688000  3.63712000  1
  Mo  Mo13  1  5.45631000  5.46946000  3.63196000  1
  Mo  Mo14  1  5.46987000  3.63284000  1.83742000  1
  Mo  Mo15  1  3.64752000  5.45622000  1.82931000  1
