# generated using pymatgen
data_Mo
_symmetry_space_group_name_H-M   'P 1'
_cell_length_a   7.28778040
_cell_length_b   7.28778040
_cell_length_c   3.64389014
_cell_angle_alpha   90.00000000
_cell_angle_beta   90.00000000
_cell_angle_gamma   90.00000000
_symmetry_Int_Tables_number   1
_chemical_formula_structural   Mo
_chemical_formula_sum   Mo16
_cell_volume   193.53335759
_cell_formula_units_Z   16
loop_
 _symmetry_equiv_pos_site_id
 _symmetry_equiv_pos_as_xyz
  1  'x, y, z'
loop_
 _atom_site_type_symbol
 _atom_site_label
 _atom_site_symmetry_multiplicity
 _atom_site_fract_x
 _atom_site_fract_y
 _atom_site_fract_z
 _atom_site_occupancy
  Mo  Mo0  1  0.03679570  7.28690000  0.13295100  1
  Mo  Mo1  1  1.75075000  1.91752000  3.63626000  1
  Mo  Mo2  1  1.73865000  -0.01211000  1.79005000  1
  Mo  Mo3  1  7.26116000  1.91147000  1.84459000  1
  Mo  Mo4  1  3.72825000  0.03183380  3.64477000  1
  Mo  Mo5  1  5.56532000  1.81655000  3.53402000  1
  Mo  Mo6  1  5.50461000  7.29466000  1.77737000  1
  Mo  Mo7  1  3.58995000  1.73447000  1.90323000  1
  Mo  Mo8  1  7.20147000  3.62876000  3.64016000  1
  Mo  Mo9  1  1.90295000  5.48581000  3.61746000  1
  Mo  Mo10  1  1.77039000  3.60413000  1.91161000  1
  Mo  Mo11  1  7.27900000  5.35911000  1.79549000  1
  Mo  Mo12  1  3.62985000  3.62223000  -0.02089180  1
  Mo  Mo13  1  5.45602000  5.42392000  3.61246000  1
  Mo  Mo14  1  5.46029000  3.62092000  1.75976000  1
  Mo  Mo15  1  3.63633000  5.49781000  1.82049000  1
