# generated using pymatgen
data_Mo
_symmetry_space_group_name_H-M   'P 1'
_cell_length_a   7.28778040
_cell_length_b   7.28778040
_cell_length_c   3.64389014
_cell_angle_alpha   90.00000000
_cell_angle_beta   90.00000000
_cell_angle_gamma   90.00000000
_symmetry_Int_Tables_number   1
_chemical_formula_structural   Mo
_chemical_formula_sum   Mo16
_cell_volume   193.53335759
_cell_formula_units_Z   16
loop_
 _symmetry_equiv_pos_site_id
 _symmetry_equiv_pos_as_xyz
  1  'x, y, z'
loop_
 _atom_site_type_symbol
 _atom_site_label
 _atom_site_symmetry_multiplicity
 _atom_site_fract_x
 _atom_site_fract_y
 _atom_site_fract_z
 _atom_site_occupancy
  Mo  Mo0  1  0.11199400  7.34476000  -0.01749990  1
  Mo  Mo1  1  1.86979000  1.80220000  3.70755000  1
  Mo  Mo2  1  1.82903000  0.03753170  1.76589000  1
  Mo  Mo3  1  7.24641000  1.74232000  1.78217000  1
  Mo  Mo4  1  3.58611000  -0.01665080  3.61023000  1
  Mo  Mo5  1  5.47036000  1.68657000  3.62480000  1
  Mo  Mo6  1  5.44616000  7.27284000  1.80856000  1
  Mo  Mo7  1  3.67923000  1.82866000  1.90065000  1
  Mo  Mo8  1  7.12095000  3.60852000  3.57574000  1
  Mo  Mo9  1  1.82624000  5.45327000  3.64974000  1
  Mo  Mo10  1  1.79428000  3.65877000  1.78434000  1
  Mo  Mo11  1  7.27579000  5.50939000  1.85377000  1
  Mo  Mo12  1  3.73985000  3.70584000  0.05037220  1
  Mo  Mo13  1  5.37893000  5.54473000  3.66298000  1
  Mo  Mo14  1  5.56938000  3.55128000  1.78770000  1
  Mo  Mo15  1  3.56727000  5.49397000  1.85278000  1
