# generated using pymatgen
data_Mo
_symmetry_space_group_name_H-M   'P 1'
_cell_length_a   7.28778040
_cell_length_b   7.28778040
_cell_length_c   3.64389014
_cell_angle_alpha   90.00000000
_cell_angle_beta   90.00000000
_cell_angle_gamma   90.00000000
_symmetry_Int_Tables_number   1
_chemical_formula_structural   Mo
_chemical_formula_sum   Mo16
_cell_volume   193.53335759
_cell_formula_units_Z   16
loop_
 _symmetry_equiv_pos_site_id
 _symmetry_equiv_pos_as_xyz
  1  'x, y, z'
loop_
 _atom_site_type_symbol
 _atom_site_label
 _atom_site_symmetry_multiplicity
 _atom_site_fract_x
 _atom_site_fract_y
 _atom_site_fract_z
 _atom_site_occupancy
  Mo  Mo0  1  -0.04500380  7.36010000  0.02701520  1
  Mo  Mo1  1  1.65179000  1.78234000  3.58866000  1
  Mo  Mo2  1  1.78718000  -0.10495400  1.91506000  1
  Mo  Mo3  1  7.38218000  1.82917000  1.79720000  1
  Mo  Mo4  1  3.60779000  -0.03844300  3.62463000  1
  Mo  Mo5  1  5.52377000  1.88126000  3.65569000  1
  Mo  Mo6  1  5.52439000  7.23513000  1.83830000  1
  Mo  Mo7  1  3.62795000  1.77644000  1.71822000  1
  Mo  Mo8  1  7.25834000  3.61212000  3.61518000  1
  Mo  Mo9  1  1.89216000  5.46638000  3.57356000  1
  Mo  Mo10  1  1.75020000  3.62640000  1.76220000  1
  Mo  Mo11  1  7.29985000  5.42056000  1.87809000  1
  Mo  Mo12  1  3.65952000  3.66710000  0.03046020  1
  Mo  Mo13  1  5.47974000  5.54589000  3.72220000  1
  Mo  Mo14  1  5.54263000  3.59273000  1.82644000  1
  Mo  Mo15  1  3.56929000  5.57179000  1.82687000  1
