# generated using pymatgen
data_Mo
_symmetry_space_group_name_H-M   'P 1'
_cell_length_a   7.28778040
_cell_length_b   7.28778040
_cell_length_c   3.64389014
_cell_angle_alpha   90.00000000
_cell_angle_beta   90.00000000
_cell_angle_gamma   90.00000000
_symmetry_Int_Tables_number   1
_chemical_formula_structural   Mo
_chemical_formula_sum   Mo16
_cell_volume   193.53335759
_cell_formula_units_Z   16
loop_
 _symmetry_equiv_pos_site_id
 _symmetry_equiv_pos_as_xyz
  1  'x, y, z'
loop_
 _atom_site_type_symbol
 _atom_site_label
 _atom_site_symmetry_multiplicity
 _atom_site_fract_x
 _atom_site_fract_y
 _atom_site_fract_z
 _atom_site_occupancy
  Mo  Mo0  1  -0.04347990  7.44710000  -0.11524800  1
  Mo  Mo1  1  1.69493000  1.81454000  3.69569000  1
  Mo  Mo2  1  1.85465000  -0.04139970  1.82995000  1
  Mo  Mo3  1  7.26738000  1.82667000  1.75528000  1
  Mo  Mo4  1  3.68013000  -0.04715500  3.67526000  1
  Mo  Mo5  1  5.41626000  1.90991000  3.67553000  1
  Mo  Mo6  1  5.43284000  7.33562000  1.85335000  1
  Mo  Mo7  1  3.61046000  1.73334000  1.79145000  1
  Mo  Mo8  1  7.28079000  3.64257000  3.69706000  1
  Mo  Mo9  1  1.80314000  5.41484000  3.57414000  1
  Mo  Mo10  1  1.71280000  3.57098000  1.85861000  1
  Mo  Mo11  1  7.24440000  5.45363000  1.81901000  1
  Mo  Mo12  1  3.77603000  3.66958000  0.04103420  1
  Mo  Mo13  1  5.55633000  5.49826000  3.60724000  1
  Mo  Mo14  1  5.60087000  3.57034000  1.76487000  1
  Mo  Mo15  1  3.62424000  5.42518000  1.87656000  1
