# generated using pymatgen
data_Mo
_symmetry_space_group_name_H-M   'P 1'
_cell_length_a   7.28778040
_cell_length_b   7.28778040
_cell_length_c   3.64389014
_cell_angle_alpha   90.00000000
_cell_angle_beta   90.00000000
_cell_angle_gamma   90.00000000
_symmetry_Int_Tables_number   1
_chemical_formula_structural   Mo
_chemical_formula_sum   Mo16
_cell_volume   193.53335759
_cell_formula_units_Z   16
loop_
 _symmetry_equiv_pos_site_id
 _symmetry_equiv_pos_as_xyz
  1  'x, y, z'
loop_
 _atom_site_type_symbol
 _atom_site_label
 _atom_site_symmetry_multiplicity
 _atom_site_fract_x
 _atom_site_fract_y
 _atom_site_fract_z
 _atom_site_occupancy
  Mo  Mo0  1  0.01104360  7.22789000  -0.03142500  1
  Mo  Mo1  1  1.75693000  1.81472000  3.58665000  1
  Mo  Mo2  1  1.71103000  0.03941830  1.72128000  1
  Mo  Mo3  1  7.43719000  1.83918000  1.79697000  1
  Mo  Mo4  1  3.48722000  0.06506880  3.54326000  1
  Mo  Mo5  1  5.45908000  1.79108000  3.73252000  1
  Mo  Mo6  1  5.58458000  7.35315000  1.97369000  1
  Mo  Mo7  1  3.54022000  1.83012000  1.77206000  1
  Mo  Mo8  1  7.33736000  3.70534000  3.57817000  1
  Mo  Mo9  1  1.77839000  5.31592000  3.61599000  1
  Mo  Mo10  1  1.95581000  3.65463000  1.77362000  1
  Mo  Mo11  1  7.25946000  5.40190000  1.88243000  1
  Mo  Mo12  1  3.65413000  3.57293000  0.06487190  1
  Mo  Mo13  1  5.45496000  5.50079000  3.71938000  1
  Mo  Mo14  1  5.36074000  3.63670000  1.87035000  1
  Mo  Mo15  1  3.72364000  5.47518000  1.79996000  1
