# generated using pymatgen
data_Mo
_symmetry_space_group_name_H-M   'P 1'
_cell_length_a   7.28778040
_cell_length_b   7.28778040
_cell_length_c   3.64389014
_cell_angle_alpha   90.00000000
_cell_angle_beta   90.00000000
_cell_angle_gamma   90.00000000
_symmetry_Int_Tables_number   1
_chemical_formula_structural   Mo
_chemical_formula_sum   Mo16
_cell_volume   193.53335759
_cell_formula_units_Z   16
loop_
 _symmetry_equiv_pos_site_id
 _symmetry_equiv_pos_as_xyz
  1  'x, y, z'
loop_
 _atom_site_type_symbol
 _atom_site_label
 _atom_site_symmetry_multiplicity
 _atom_site_fract_x
 _atom_site_fract_y
 _atom_site_fract_z
 _atom_site_occupancy
  Mo  Mo0  1  -0.14804300  7.29759000  0.05249060  1
  Mo  Mo1  1  1.90008000  1.78619000  3.64003000  1
  Mo  Mo2  1  1.83354000  -0.02188330  1.82233000  1
  Mo  Mo3  1  7.27337000  1.80558000  1.76435000  1
  Mo  Mo4  1  3.76163000  -0.12903300  3.60476000  1
  Mo  Mo5  1  5.37679000  1.88374000  3.63088000  1
  Mo  Mo6  1  5.41276000  7.25733000  1.92660000  1
  Mo  Mo7  1  3.66998000  1.86054000  1.89677000  1
  Mo  Mo8  1  7.31395000  3.62450000  3.52016000  1
  Mo  Mo9  1  1.88046000  5.61640000  3.66199000  1
  Mo  Mo10  1  1.83298000  3.67217000  1.83187000  1
  Mo  Mo11  1  7.15303000  5.55709000  1.80679000  1
  Mo  Mo12  1  3.60821000  3.61019000  0.00765287  1
  Mo  Mo13  1  5.44295000  5.36240000  3.56141000  1
  Mo  Mo14  1  5.50966000  3.62409000  1.83868000  1
  Mo  Mo15  1  3.69042000  5.41710000  1.83299000  1
