# generated using pymatgen
data_Mo
_symmetry_space_group_name_H-M   'P 1'
_cell_length_a   7.28778040
_cell_length_b   7.28778040
_cell_length_c   3.64389014
_cell_angle_alpha   90.00000000
_cell_angle_beta   90.00000000
_cell_angle_gamma   90.00000000
_symmetry_Int_Tables_number   1
_chemical_formula_structural   Mo
_chemical_formula_sum   Mo16
_cell_volume   193.53335759
_cell_formula_units_Z   16
loop_
 _symmetry_equiv_pos_site_id
 _symmetry_equiv_pos_as_xyz
  1  'x, y, z'
loop_
 _atom_site_type_symbol
 _atom_site_label
 _atom_site_symmetry_multiplicity
 _atom_site_fract_x
 _atom_site_fract_y
 _atom_site_fract_z
 _atom_site_occupancy
  Mo  Mo0  1  -0.00690517  7.26695000  -0.06476750  1
  Mo  Mo1  1  1.85487000  1.79290000  3.57930000  1
  Mo  Mo2  1  1.92200000  0.05014980  1.81954000  1
  Mo  Mo3  1  7.23760000  1.81227000  1.79815000  1
  Mo  Mo4  1  3.62243000  -0.01862390  3.66726000  1
  Mo  Mo5  1  5.43733000  1.77010000  3.73920000  1
  Mo  Mo6  1  5.47907000  7.13860000  1.89834000  1
  Mo  Mo7  1  3.67837000  1.84526000  1.78456000  1
  Mo  Mo8  1  7.26079000  3.58879000  3.52503000  1
  Mo  Mo9  1  1.88678000  5.45627000  3.64265000  1
  Mo  Mo10  1  1.83382000  3.63772000  1.73194000  1
  Mo  Mo11  1  7.23008000  5.52993000  1.81939000  1
  Mo  Mo12  1  3.63705000  3.62112000  0.05905870  1
  Mo  Mo13  1  5.34817000  5.51223000  3.66689000  1
  Mo  Mo14  1  5.44807000  3.68391000  1.85073000  1
  Mo  Mo15  1  3.64227000  5.53644000  1.88249000  1
