# generated using pymatgen
data_Mo
_symmetry_space_group_name_H-M   'P 1'
_cell_length_a   7.28778040
_cell_length_b   7.28778040
_cell_length_c   3.64389014
_cell_angle_alpha   90.00000000
_cell_angle_beta   90.00000000
_cell_angle_gamma   90.00000000
_symmetry_Int_Tables_number   1
_chemical_formula_structural   Mo
_chemical_formula_sum   Mo16
_cell_volume   193.53335759
_cell_formula_units_Z   16
loop_
 _symmetry_equiv_pos_site_id
 _symmetry_equiv_pos_as_xyz
  1  'x, y, z'
loop_
 _atom_site_type_symbol
 _atom_site_label
 _atom_site_symmetry_multiplicity
 _atom_site_fract_x
 _atom_site_fract_y
 _atom_site_fract_z
 _atom_site_occupancy
  Mo  Mo0  1  -0.08325230  7.22651000  -0.13331700  1
  Mo  Mo1  1  1.80517000  1.80650000  3.72735000  1
  Mo  Mo2  1  1.81904000  0.03055730  1.86422000  1
  Mo  Mo3  1  7.27192000  1.86463000  1.87212000  1
  Mo  Mo4  1  3.66080000  0.02829090  3.67862000  1
  Mo  Mo5  1  5.52989000  1.91711000  3.56934000  1
  Mo  Mo6  1  5.46736000  7.28076000  1.82076000  1
  Mo  Mo7  1  3.74235000  1.76260000  1.78902000  1
  Mo  Mo8  1  7.32149000  3.67746000  3.68475000  1
  Mo  Mo9  1  1.85641000  5.50446000  3.64335000  1
  Mo  Mo10  1  1.79828000  3.73166000  1.89309000  1
  Mo  Mo11  1  7.17265000  5.39556000  1.72574000  1
  Mo  Mo12  1  3.66077000  3.53883000  0.02875470  1
  Mo  Mo13  1  5.38597000  5.26787000  3.57822000  1
  Mo  Mo14  1  5.44766000  3.67276000  1.81737000  1
  Mo  Mo15  1  3.65528000  5.51844000  1.84041000  1
