# generated using pymatgen
data_Mo
_symmetry_space_group_name_H-M   'P 1'
_cell_length_a   7.28778040
_cell_length_b   7.28778040
_cell_length_c   3.64389014
_cell_angle_alpha   90.00000000
_cell_angle_beta   90.00000000
_cell_angle_gamma   90.00000000
_symmetry_Int_Tables_number   1
_chemical_formula_structural   Mo
_chemical_formula_sum   Mo16
_cell_volume   193.53335759
_cell_formula_units_Z   16
loop_
 _symmetry_equiv_pos_site_id
 _symmetry_equiv_pos_as_xyz
  1  'x, y, z'
loop_
 _atom_site_type_symbol
 _atom_site_label
 _atom_site_symmetry_multiplicity
 _atom_site_fract_x
 _atom_site_fract_y
 _atom_site_fract_z
 _atom_site_occupancy
  Mo  Mo0  1  -0.20212000  7.32581000  -0.03107650  1
  Mo  Mo1  1  1.87629000  1.78592000  3.66235000  1
  Mo  Mo2  1  1.93532000  -0.03820740  1.81652000  1
  Mo  Mo3  1  7.26768000  1.83336000  1.82495000  1
  Mo  Mo4  1  3.77820000  -0.00563025  3.76303000  1
  Mo  Mo5  1  5.53247000  1.85187000  3.64847000  1
  Mo  Mo6  1  5.37225000  7.30120000  1.76391000  1
  Mo  Mo7  1  3.75832000  1.77618000  1.82229000  1
  Mo  Mo8  1  7.35496000  3.67260000  3.60974000  1
  Mo  Mo9  1  1.70955000  5.47567000  3.62872000  1
  Mo  Mo10  1  1.76690000  3.76114000  1.86565000  1
  Mo  Mo11  1  7.22380000  5.44538000  1.75209000  1
  Mo  Mo12  1  3.59248000  3.70044000  -0.00965329  1
  Mo  Mo13  1  5.40380000  5.36116000  3.68039000  1
  Mo  Mo14  1  5.47598000  3.55474000  1.72372000  1
  Mo  Mo15  1  3.66588000  5.42237000  1.87869000  1
