# generated using pymatgen
data_Mo
_symmetry_space_group_name_H-M   'P 1'
_cell_length_a   7.28778040
_cell_length_b   7.28778040
_cell_length_c   3.64389014
_cell_angle_alpha   90.00000000
_cell_angle_beta   90.00000000
_cell_angle_gamma   90.00000000
_symmetry_Int_Tables_number   1
_chemical_formula_structural   Mo
_chemical_formula_sum   Mo16
_cell_volume   193.53335759
_cell_formula_units_Z   16
loop_
 _symmetry_equiv_pos_site_id
 _symmetry_equiv_pos_as_xyz
  1  'x, y, z'
loop_
 _atom_site_type_symbol
 _atom_site_label
 _atom_site_symmetry_multiplicity
 _atom_site_fract_x
 _atom_site_fract_y
 _atom_site_fract_z
 _atom_site_occupancy
  Mo  Mo0  1  0.06437760  7.23274000  0.00624491  1
  Mo  Mo1  1  1.74081000  1.87552000  3.63027000  1
  Mo  Mo2  1  1.65719000  0.04233400  1.88038000  1
  Mo  Mo3  1  7.20638000  1.93423000  1.86836000  1
  Mo  Mo4  1  3.64305000  0.02399460  3.66483000  1
  Mo  Mo5  1  5.42211000  1.77630000  3.58233000  1
  Mo  Mo6  1  5.56422000  7.24538000  1.79853000  1
  Mo  Mo7  1  3.53533000  1.83364000  1.82209000  1
  Mo  Mo8  1  7.31445000  3.67284000  3.50262000  1
  Mo  Mo9  1  1.83886000  5.36491000  3.73368000  1
  Mo  Mo10  1  1.77067000  3.63611000  1.87681000  1
  Mo  Mo11  1  7.31166000  5.43962000  1.85574000  1
  Mo  Mo12  1  3.69638000  3.56445000  0.05200660  1
  Mo  Mo13  1  5.56640000  5.51800000  3.56521000  1
  Mo  Mo14  1  5.48446000  3.62794000  1.71029000  1
  Mo  Mo15  1  3.69543000  5.43600000  1.85040000  1
