# generated using pymatgen
data_Mo
_symmetry_space_group_name_H-M   'P 1'
_cell_length_a   7.27806742
_cell_length_b   7.27806742
_cell_length_c   3.63903379
_cell_angle_alpha   90.00000000
_cell_angle_beta   90.00000000
_cell_angle_gamma   90.00000000
_symmetry_Int_Tables_number   1
_chemical_formula_structural   Mo
_chemical_formula_sum   Mo16
_cell_volume   192.76058556
_cell_formula_units_Z   16
loop_
 _symmetry_equiv_pos_site_id
 _symmetry_equiv_pos_as_xyz
  1  'x, y, z'
loop_
 _atom_site_type_symbol
 _atom_site_label
 _atom_site_symmetry_multiplicity
 _atom_site_fract_x
 _atom_site_fract_y
 _atom_site_fract_z
 _atom_site_occupancy
  Mo  Mo0  1  -0.00260427  7.26311000  3.66040000  1
  Mo  Mo1  1  1.84729000  1.82935000  -0.00876587  1
  Mo  Mo2  1  1.81248000  7.29593000  1.82949000  1
  Mo  Mo3  1  7.30222000  1.80941000  1.81002000  1
  Mo  Mo4  1  3.65364000  7.27162000  -0.00601245  1
  Mo  Mo5  1  5.45574000  1.82994000  0.01746480  1
  Mo  Mo6  1  5.45184000  -0.01077120  1.80424000  1
  Mo  Mo7  1  3.62962000  1.83031000  1.85023000  1
  Mo  Mo8  1  7.26154000  3.64836000  3.61898000  1
  Mo  Mo9  1  1.81693000  5.44402000  3.63957000  1
  Mo  Mo10  1  1.80222000  3.62446000  1.83211000  1
  Mo  Mo11  1  -0.01197580  5.46092000  1.79839000  1
  Mo  Mo12  1  3.64095000  3.65219000  3.60926000  1
  Mo  Mo13  1  5.47386000  5.47029000  3.64342000  1
  Mo  Mo14  1  5.45123000  3.61516000  1.82294000  1
  Mo  Mo15  1  3.63903000  5.46776000  1.82929000  1
