# generated using pymatgen
data_Mo
_symmetry_space_group_name_H-M   'P 1'
_cell_length_a   7.28778040
_cell_length_b   7.28778040
_cell_length_c   3.64389014
_cell_angle_alpha   90.00000000
_cell_angle_beta   90.00000000
_cell_angle_gamma   90.00000000
_symmetry_Int_Tables_number   1
_chemical_formula_structural   Mo
_chemical_formula_sum   Mo16
_cell_volume   193.53335759
_cell_formula_units_Z   16
loop_
 _symmetry_equiv_pos_site_id
 _symmetry_equiv_pos_as_xyz
  1  'x, y, z'
loop_
 _atom_site_type_symbol
 _atom_site_label
 _atom_site_symmetry_multiplicity
 _atom_site_fract_x
 _atom_site_fract_y
 _atom_site_fract_z
 _atom_site_occupancy
  Mo  Mo0  1  -0.13549100  7.24261000  -0.04432000  1
  Mo  Mo1  1  1.82571000  1.70674000  3.64995000  1
  Mo  Mo2  1  1.82053000  0.00507635  1.84232000  1
  Mo  Mo3  1  7.33948000  1.73183000  1.77012000  1
  Mo  Mo4  1  3.66956000  0.05327480  3.58220000  1
  Mo  Mo5  1  5.54402000  1.85067000  3.66188000  1
  Mo  Mo6  1  5.50407000  7.27100000  1.80380000  1
  Mo  Mo7  1  3.75864000  1.81379000  1.83010000  1
  Mo  Mo8  1  7.26192000  3.68397000  3.70746000  1
  Mo  Mo9  1  1.82474000  5.63645000  3.64008000  1
  Mo  Mo10  1  1.87640000  3.58854000  1.85276000  1
  Mo  Mo11  1  7.17676000  5.48204000  1.72012000  1
  Mo  Mo12  1  3.60712000  3.63309000  0.05848220  1
  Mo  Mo13  1  5.35931000  5.39728000  3.59749000  1
  Mo  Mo14  1  5.41445000  3.64887000  1.82942000  1
  Mo  Mo15  1  3.66456000  5.47877000  1.89790000  1
