# generated using pymatgen
data_Mo
_symmetry_space_group_name_H-M   'P 1'
_cell_length_a   7.28778040
_cell_length_b   7.28778040
_cell_length_c   3.64389014
_cell_angle_alpha   90.00000000
_cell_angle_beta   90.00000000
_cell_angle_gamma   90.00000000
_symmetry_Int_Tables_number   1
_chemical_formula_structural   Mo
_chemical_formula_sum   Mo16
_cell_volume   193.53335759
_cell_formula_units_Z   16
loop_
 _symmetry_equiv_pos_site_id
 _symmetry_equiv_pos_as_xyz
  1  'x, y, z'
loop_
 _atom_site_type_symbol
 _atom_site_label
 _atom_site_symmetry_multiplicity
 _atom_site_fract_x
 _atom_site_fract_y
 _atom_site_fract_z
 _atom_site_occupancy
  Mo  Mo0  1  0.03235940  7.22900000  0.06828900  1
  Mo  Mo1  1  1.89530000  1.84704000  3.59914000  1
  Mo  Mo2  1  1.81719000  -0.01374590  1.77603000  1
  Mo  Mo3  1  7.28027000  1.86754000  1.83866000  1
  Mo  Mo4  1  3.57874000  -0.07535940  3.62911000  1
  Mo  Mo5  1  5.44346000  1.74826000  3.59939000  1
  Mo  Mo6  1  5.31635000  7.32248000  1.80433000  1
  Mo  Mo7  1  3.60676000  1.84106000  1.85522000  1
  Mo  Mo8  1  7.32435000  3.51844000  3.59990000  1
  Mo  Mo9  1  1.85424000  5.53407000  3.75246000  1
  Mo  Mo10  1  1.82732000  3.73125000  1.82768000  1
  Mo  Mo11  1  7.31735000  5.40985000  1.83060000  1
  Mo  Mo12  1  3.65539000  3.71836000  -0.02989070  1
  Mo  Mo13  1  5.35058000  5.36891000  3.60602000  1
  Mo  Mo14  1  5.49271000  3.60303000  1.85689000  1
  Mo  Mo15  1  3.71943000  5.57381000  1.78596000  1
