# generated using pymatgen
data_Mo
_symmetry_space_group_name_H-M   'P 1'
_cell_length_a   7.28778040
_cell_length_b   7.28778040
_cell_length_c   3.64389014
_cell_angle_alpha   90.00000000
_cell_angle_beta   90.00000000
_cell_angle_gamma   90.00000000
_symmetry_Int_Tables_number   1
_chemical_formula_structural   Mo
_chemical_formula_sum   Mo16
_cell_volume   193.53335759
_cell_formula_units_Z   16
loop_
 _symmetry_equiv_pos_site_id
 _symmetry_equiv_pos_as_xyz
  1  'x, y, z'
loop_
 _atom_site_type_symbol
 _atom_site_label
 _atom_site_symmetry_multiplicity
 _atom_site_fract_x
 _atom_site_fract_y
 _atom_site_fract_z
 _atom_site_occupancy
  Mo  Mo0  1  0.05254920  7.37211000  0.10317800  1
  Mo  Mo1  1  1.73934000  1.89163000  3.68394000  1
  Mo  Mo2  1  1.87222000  0.03332310  1.82059000  1
  Mo  Mo3  1  7.26528000  1.77173000  1.78300000  1
  Mo  Mo4  1  3.59355000  -0.00654539  3.56748000  1
  Mo  Mo5  1  5.41283000  1.81298000  3.66182000  1
  Mo  Mo6  1  5.50560000  7.27182000  1.82715000  1
  Mo  Mo7  1  3.64808000  1.78501000  1.77056000  1
  Mo  Mo8  1  7.33528000  3.58922000  3.67846000  1
  Mo  Mo9  1  1.79763000  5.46498000  3.65870000  1
  Mo  Mo10  1  1.80380000  3.60689000  1.83445000  1
  Mo  Mo11  1  7.26144000  5.39632000  1.86051000  1
  Mo  Mo12  1  3.68132000  3.71253000  0.01711920  1
  Mo  Mo13  1  5.52629000  5.46161000  3.54041000  1
  Mo  Mo14  1  5.47194000  3.60532000  1.76763000  1
  Mo  Mo15  1  3.54464000  5.45507000  1.82479000  1
