# generated using pymatgen
data_Mo
_symmetry_space_group_name_H-M   'P 1'
_cell_length_a   7.28778040
_cell_length_b   7.28778040
_cell_length_c   3.64389014
_cell_angle_alpha   90.00000000
_cell_angle_beta   90.00000000
_cell_angle_gamma   90.00000000
_symmetry_Int_Tables_number   1
_chemical_formula_structural   Mo
_chemical_formula_sum   Mo16
_cell_volume   193.53335759
_cell_formula_units_Z   16
loop_
 _symmetry_equiv_pos_site_id
 _symmetry_equiv_pos_as_xyz
  1  'x, y, z'
loop_
 _atom_site_type_symbol
 _atom_site_label
 _atom_site_symmetry_multiplicity
 _atom_site_fract_x
 _atom_site_fract_y
 _atom_site_fract_z
 _atom_site_occupancy
  Mo  Mo0  1  0.04501000  7.32332000  -0.00459168  1
  Mo  Mo1  1  1.81720000  1.91022000  3.62713000  1
  Mo  Mo2  1  1.78447000  -0.04733340  1.76587000  1
  Mo  Mo3  1  7.31153000  1.76864000  1.92058000  1
  Mo  Mo4  1  3.50754000  0.00358249  3.68031000  1
  Mo  Mo5  1  5.42136000  1.83081000  3.64467000  1
  Mo  Mo6  1  5.51606000  7.30819000  1.75728000  1
  Mo  Mo7  1  3.55081000  1.82049000  1.79438000  1
  Mo  Mo8  1  7.35692000  3.58666000  3.67328000  1
  Mo  Mo9  1  1.77231000  5.36968000  3.55525000  1
  Mo  Mo10  1  1.79604000  3.62595000  1.91148000  1
  Mo  Mo11  1  7.33811000  5.48466000  1.82734000  1
  Mo  Mo12  1  3.56186000  3.72028000  -0.13231400  1
  Mo  Mo13  1  5.57345000  5.51224000  3.65440000  1
  Mo  Mo14  1  5.45060000  3.54989000  1.84675000  1
  Mo  Mo15  1  3.70852000  5.45671000  1.87795000  1
