# generated using pymatgen
data_Mo
_symmetry_space_group_name_H-M   'P 1'
_cell_length_a   7.28778040
_cell_length_b   7.28778040
_cell_length_c   3.64389014
_cell_angle_alpha   90.00000000
_cell_angle_beta   90.00000000
_cell_angle_gamma   90.00000000
_symmetry_Int_Tables_number   1
_chemical_formula_structural   Mo
_chemical_formula_sum   Mo16
_cell_volume   193.53335759
_cell_formula_units_Z   16
loop_
 _symmetry_equiv_pos_site_id
 _symmetry_equiv_pos_as_xyz
  1  'x, y, z'
loop_
 _atom_site_type_symbol
 _atom_site_label
 _atom_site_symmetry_multiplicity
 _atom_site_fract_x
 _atom_site_fract_y
 _atom_site_fract_z
 _atom_site_occupancy
  Mo  Mo0  1  0.01457000  7.28778000  -0.04787820  1
  Mo  Mo1  1  1.84467000  1.77523000  3.68348000  1
  Mo  Mo2  1  1.79207000  0.06370070  1.84638000  1
  Mo  Mo3  1  7.27840000  1.72922000  1.89334000  1
  Mo  Mo4  1  3.64177000  -0.01009520  3.64302000  1
  Mo  Mo5  1  5.40076000  1.77240000  3.60138000  1
  Mo  Mo6  1  5.48332000  7.22655000  1.78520000  1
  Mo  Mo7  1  3.55167000  1.85207000  1.82132000  1
  Mo  Mo8  1  7.29926000  3.69950000  3.67649000  1
  Mo  Mo9  1  1.82121000  5.43464000  3.72006000  1
  Mo  Mo10  1  1.86070000  3.59342000  1.81793000  1
  Mo  Mo11  1  7.25706000  5.54876000  1.83949000  1
  Mo  Mo12  1  3.59450000  3.65571000  -0.09735250  1
  Mo  Mo13  1  5.47814000  5.53660000  3.56374000  1
  Mo  Mo14  1  5.54322000  3.63894000  1.74547000  1
  Mo  Mo15  1  3.65045000  5.41957000  1.90772000  1
