# generated using pymatgen
data_Mo
_symmetry_space_group_name_H-M   'P 1'
_cell_length_a   7.27806742
_cell_length_b   7.27806742
_cell_length_c   3.63903379
_cell_angle_alpha   90.00000000
_cell_angle_beta   90.00000000
_cell_angle_gamma   90.00000000
_symmetry_Int_Tables_number   1
_chemical_formula_structural   Mo
_chemical_formula_sum   Mo16
_cell_volume   192.76058556
_cell_formula_units_Z   16
loop_
 _symmetry_equiv_pos_site_id
 _symmetry_equiv_pos_as_xyz
  1  'x, y, z'
loop_
 _atom_site_type_symbol
 _atom_site_label
 _atom_site_symmetry_multiplicity
 _atom_site_fract_x
 _atom_site_fract_y
 _atom_site_fract_z
 _atom_site_occupancy
  Mo  Mo0  1  -0.00753444  7.27812000  3.64335000  1
  Mo  Mo1  1  1.81047000  1.81026000  -0.01013860  1
  Mo  Mo2  1  1.82177000  7.29464000  1.81901000  1
  Mo  Mo3  1  7.30596000  1.81432000  1.82115000  1
  Mo  Mo4  1  3.66029000  7.29478000  -0.01412670  1
  Mo  Mo5  1  5.45391000  1.80968000  -0.01196450  1
  Mo  Mo6  1  5.47872000  -0.00567631  1.79513000  1
  Mo  Mo7  1  3.61780000  1.81097000  1.79173000  1
  Mo  Mo8  1  7.27463000  3.63566000  3.64710000  1
  Mo  Mo9  1  1.81240000  5.45126000  3.65530000  1
  Mo  Mo10  1  1.81234000  3.64113000  1.83907000  1
  Mo  Mo11  1  -0.00330922  5.44550000  1.83909000  1
  Mo  Mo12  1  3.62974000  3.62613000  3.67172000  1
  Mo  Mo13  1  5.45021000  5.47320000  3.63610000  1
  Mo  Mo14  1  5.47357000  3.66306000  1.82024000  1
  Mo  Mo15  1  3.63305000  5.45903000  1.80827000  1
