# generated using pymatgen
data_Mo
_symmetry_space_group_name_H-M   'P 1'
_cell_length_a   7.28778040
_cell_length_b   7.28778040
_cell_length_c   3.64389014
_cell_angle_alpha   90.00000000
_cell_angle_beta   90.00000000
_cell_angle_gamma   90.00000000
_symmetry_Int_Tables_number   1
_chemical_formula_structural   Mo
_chemical_formula_sum   Mo16
_cell_volume   193.53335759
_cell_formula_units_Z   16
loop_
 _symmetry_equiv_pos_site_id
 _symmetry_equiv_pos_as_xyz
  1  'x, y, z'
loop_
 _atom_site_type_symbol
 _atom_site_label
 _atom_site_symmetry_multiplicity
 _atom_site_fract_x
 _atom_site_fract_y
 _atom_site_fract_z
 _atom_site_occupancy
  Mo  Mo0  1  0.08507500  7.35319000  0.01857120  1
  Mo  Mo1  1  1.73081000  1.91030000  3.64832000  1
  Mo  Mo2  1  1.75365000  0.08385370  1.78617000  1
  Mo  Mo3  1  7.25266000  1.77792000  1.79688000  1
  Mo  Mo4  1  3.59533000  0.09147420  3.66466000  1
  Mo  Mo5  1  5.41708000  1.79965000  3.68378000  1
  Mo  Mo6  1  5.57799000  7.25013000  1.89293000  1
  Mo  Mo7  1  3.64833000  1.80516000  1.78537000  1
  Mo  Mo8  1  7.31480000  3.62766000  3.71776000  1
  Mo  Mo9  1  1.73908000  5.42670000  3.53077000  1
  Mo  Mo10  1  1.80517000  3.56320000  1.72626000  1
  Mo  Mo11  1  7.23642000  5.41889000  1.82144000  1
  Mo  Mo12  1  3.70304000  3.60460000  -0.03900660  1
  Mo  Mo13  1  5.60369000  5.45951000  3.66017000  1
  Mo  Mo14  1  5.43429000  3.64605000  1.88002000  1
  Mo  Mo15  1  3.61435000  5.40571000  1.82569000  1
