# generated using pymatgen
data_Mo
_symmetry_space_group_name_H-M   'P 1'
_cell_length_a   7.28778040
_cell_length_b   7.28778040
_cell_length_c   3.64389014
_cell_angle_alpha   90.00000000
_cell_angle_beta   90.00000000
_cell_angle_gamma   90.00000000
_symmetry_Int_Tables_number   1
_chemical_formula_structural   Mo
_chemical_formula_sum   Mo16
_cell_volume   193.53335759
_cell_formula_units_Z   16
loop_
 _symmetry_equiv_pos_site_id
 _symmetry_equiv_pos_as_xyz
  1  'x, y, z'
loop_
 _atom_site_type_symbol
 _atom_site_label
 _atom_site_symmetry_multiplicity
 _atom_site_fract_x
 _atom_site_fract_y
 _atom_site_fract_z
 _atom_site_occupancy
  Mo  Mo0  1  -0.01365930  7.21258000  0.04898680  1
  Mo  Mo1  1  1.89360000  1.85572000  3.54578000  1
  Mo  Mo2  1  1.79518000  0.02173880  1.75397000  1
  Mo  Mo3  1  7.26339000  1.74528000  1.86804000  1
  Mo  Mo4  1  3.61114000  0.01303850  3.62213000  1
  Mo  Mo5  1  5.55201000  1.70156000  3.62623000  1
  Mo  Mo6  1  5.45356000  7.30495000  1.84901000  1
  Mo  Mo7  1  3.68872000  2.00350000  1.83306000  1
  Mo  Mo8  1  7.21414000  3.52565000  3.62998000  1
  Mo  Mo9  1  1.72254000  5.46524000  3.71720000  1
  Mo  Mo10  1  1.76206000  3.73394000  1.85621000  1
  Mo  Mo11  1  7.28113000  5.48954000  1.85698000  1
  Mo  Mo12  1  3.59535000  3.68631000  -0.05844720  1
  Mo  Mo13  1  5.49543000  5.42381000  3.68526000  1
  Mo  Mo14  1  5.49456000  3.60931000  1.80571000  1
  Mo  Mo15  1  3.70263000  5.43183000  1.75969000  1
