# generated using pymatgen
data_Mo
_symmetry_space_group_name_H-M   'P 1'
_cell_length_a   7.28778040
_cell_length_b   7.28778040
_cell_length_c   3.64389014
_cell_angle_alpha   90.00000000
_cell_angle_beta   90.00000000
_cell_angle_gamma   90.00000000
_symmetry_Int_Tables_number   1
_chemical_formula_structural   Mo
_chemical_formula_sum   Mo16
_cell_volume   193.53335759
_cell_formula_units_Z   16
loop_
 _symmetry_equiv_pos_site_id
 _symmetry_equiv_pos_as_xyz
  1  'x, y, z'
loop_
 _atom_site_type_symbol
 _atom_site_label
 _atom_site_symmetry_multiplicity
 _atom_site_fract_x
 _atom_site_fract_y
 _atom_site_fract_z
 _atom_site_occupancy
  Mo  Mo0  1  0.03475590  7.29514000  -0.04832000  1
  Mo  Mo1  1  1.83112000  1.85524000  3.73324000  1
  Mo  Mo2  1  1.93678000  -0.07862890  1.86439000  1
  Mo  Mo3  1  7.28720000  1.75874000  1.76226000  1
  Mo  Mo4  1  3.58592000  -0.05042120  3.66823000  1
  Mo  Mo5  1  5.38782000  1.84598000  3.58919000  1
  Mo  Mo6  1  5.41662000  7.28604000  1.79463000  1
  Mo  Mo7  1  3.69160000  1.79077000  1.79210000  1
  Mo  Mo8  1  7.35761000  3.67229000  3.72983000  1
  Mo  Mo9  1  1.79190000  5.44062000  3.62781000  1
  Mo  Mo10  1  1.83309000  3.61166000  1.82788000  1
  Mo  Mo11  1  7.24065000  5.46399000  1.81720000  1
  Mo  Mo12  1  3.69633000  3.71635000  -0.01116120  1
  Mo  Mo13  1  5.45308000  5.52844000  3.56290000  1
  Mo  Mo14  1  5.45291000  3.63286000  1.79375000  1
  Mo  Mo15  1  3.51441000  5.45493000  1.89586000  1
