# generated using pymatgen
data_Mo
_symmetry_space_group_name_H-M   'P 1'
_cell_length_a   7.28778040
_cell_length_b   7.28778040
_cell_length_c   3.64389014
_cell_angle_alpha   90.00000000
_cell_angle_beta   90.00000000
_cell_angle_gamma   90.00000000
_symmetry_Int_Tables_number   1
_chemical_formula_structural   Mo
_chemical_formula_sum   Mo16
_cell_volume   193.53335759
_cell_formula_units_Z   16
loop_
 _symmetry_equiv_pos_site_id
 _symmetry_equiv_pos_as_xyz
  1  'x, y, z'
loop_
 _atom_site_type_symbol
 _atom_site_label
 _atom_site_symmetry_multiplicity
 _atom_site_fract_x
 _atom_site_fract_y
 _atom_site_fract_z
 _atom_site_occupancy
  Mo  Mo0  1  0.09049230  7.36098000  0.15610800  1
  Mo  Mo1  1  1.91965000  1.87978000  3.52673000  1
  Mo  Mo2  1  1.82142000  -0.03462830  1.79679000  1
  Mo  Mo3  1  7.37457000  1.86313000  1.79661000  1
  Mo  Mo4  1  3.46794000  -0.03504870  3.62315000  1
  Mo  Mo5  1  5.45497000  1.75887000  3.71489000  1
  Mo  Mo6  1  5.40540000  7.29091000  1.83413000  1
  Mo  Mo7  1  3.69570000  1.66324000  1.86209000  1
  Mo  Mo8  1  7.25113000  3.59765000  3.57002000  1
  Mo  Mo9  1  1.67765000  5.44951000  3.58197000  1
  Mo  Mo10  1  1.81230000  3.70093000  1.77294000  1
  Mo  Mo11  1  7.28790000  5.44998000  1.94411000  1
  Mo  Mo12  1  3.70255000  3.70246000  -0.05808410  1
  Mo  Mo13  1  5.43670000  5.50959000  3.65564000  1
  Mo  Mo14  1  5.48581000  3.51372000  1.82184000  1
  Mo  Mo15  1  3.62759000  5.55291000  1.80083000  1
