# generated using pymatgen
data_Mo
_symmetry_space_group_name_H-M   'P 1'
_cell_length_a   7.28778040
_cell_length_b   7.28778040
_cell_length_c   3.64389014
_cell_angle_alpha   90.00000000
_cell_angle_beta   90.00000000
_cell_angle_gamma   90.00000000
_symmetry_Int_Tables_number   1
_chemical_formula_structural   Mo
_chemical_formula_sum   Mo16
_cell_volume   193.53335759
_cell_formula_units_Z   16
loop_
 _symmetry_equiv_pos_site_id
 _symmetry_equiv_pos_as_xyz
  1  'x, y, z'
loop_
 _atom_site_type_symbol
 _atom_site_label
 _atom_site_symmetry_multiplicity
 _atom_site_fract_x
 _atom_site_fract_y
 _atom_site_fract_z
 _atom_site_occupancy
  Mo  Mo0  1  -0.03370260  7.26055000  -0.03222450  1
  Mo  Mo1  1  1.82198000  1.85971000  3.60149000  1
  Mo  Mo2  1  1.74045000  0.08096550  1.73063000  1
  Mo  Mo3  1  7.24515000  1.75909000  1.81754000  1
  Mo  Mo4  1  3.75229000  -0.04507680  3.68309000  1
  Mo  Mo5  1  5.45765000  1.93623000  3.70385000  1
  Mo  Mo6  1  5.51478000  7.17078000  1.85791000  1
  Mo  Mo7  1  3.67968000  1.95924000  1.83709000  1
  Mo  Mo8  1  7.39787000  3.64466000  3.71889000  1
  Mo  Mo9  1  1.77780000  5.47577000  3.60414000  1
  Mo  Mo10  1  1.84898000  3.56766000  1.68293000  1
  Mo  Mo11  1  7.20322000  5.48644000  1.81211000  1
  Mo  Mo12  1  3.53967000  3.73539000  -0.06188830  1
  Mo  Mo13  1  5.40668000  5.32246000  3.72073000  1
  Mo  Mo14  1  5.46359000  3.57776000  1.82363000  1
  Mo  Mo15  1  3.69568000  5.43236000  1.89986000  1
