# generated using pymatgen
data_Mo
_symmetry_space_group_name_H-M   'P 1'
_cell_length_a   7.28778040
_cell_length_b   7.28778040
_cell_length_c   3.64389014
_cell_angle_alpha   90.00000000
_cell_angle_beta   90.00000000
_cell_angle_gamma   90.00000000
_symmetry_Int_Tables_number   1
_chemical_formula_structural   Mo
_chemical_formula_sum   Mo16
_cell_volume   193.53335759
_cell_formula_units_Z   16
loop_
 _symmetry_equiv_pos_site_id
 _symmetry_equiv_pos_as_xyz
  1  'x, y, z'
loop_
 _atom_site_type_symbol
 _atom_site_label
 _atom_site_symmetry_multiplicity
 _atom_site_fract_x
 _atom_site_fract_y
 _atom_site_fract_z
 _atom_site_occupancy
  Mo  Mo0  1  -0.02114450  7.33761000  -0.03807520  1
  Mo  Mo1  1  1.77141000  1.71123000  3.57934000  1
  Mo  Mo2  1  1.96744000  -0.02517430  1.79667000  1
  Mo  Mo3  1  7.13540000  1.86668000  1.87054000  1
  Mo  Mo4  1  3.73670000  -0.05961570  3.75714000  1
  Mo  Mo5  1  5.42215000  1.89816000  3.72763000  1
  Mo  Mo6  1  5.31809000  7.32540000  1.86779000  1
  Mo  Mo7  1  3.59051000  1.76593000  1.75058000  1
  Mo  Mo8  1  7.34342000  3.58887000  3.63107000  1
  Mo  Mo9  1  1.92835000  5.45384000  3.61005000  1
  Mo  Mo10  1  1.80978000  3.69932000  1.67760000  1
  Mo  Mo11  1  7.37965000  5.47473000  1.84177000  1
  Mo  Mo12  1  3.60039000  3.63649000  -0.05823310  1
  Mo  Mo13  1  5.45612000  5.42904000  3.71755000  1
  Mo  Mo14  1  5.46240000  3.65413000  1.87970000  1
  Mo  Mo15  1  3.61112000  5.46738000  1.78865000  1
