# generated using pymatgen
data_Mo
_symmetry_space_group_name_H-M   'P 1'
_cell_length_a   7.27806742
_cell_length_b   7.27806742
_cell_length_c   3.63903379
_cell_angle_alpha   90.00000000
_cell_angle_beta   90.00000000
_cell_angle_gamma   90.00000000
_symmetry_Int_Tables_number   1
_chemical_formula_structural   Mo
_chemical_formula_sum   Mo16
_cell_volume   192.76058556
_cell_formula_units_Z   16
loop_
 _symmetry_equiv_pos_site_id
 _symmetry_equiv_pos_as_xyz
  1  'x, y, z'
loop_
 _atom_site_type_symbol
 _atom_site_label
 _atom_site_symmetry_multiplicity
 _atom_site_fract_x
 _atom_site_fract_y
 _atom_site_fract_z
 _atom_site_occupancy
  Mo  Mo0  1  0.01731110  7.28266000  3.67339000  1
  Mo  Mo1  1  1.80043000  1.80636000  -0.02517340  1
  Mo  Mo2  1  1.81525000  7.28594000  1.84019000  1
  Mo  Mo3  1  7.25506000  1.81020000  1.83203000  1
  Mo  Mo4  1  3.60919000  7.26996000  0.01889460  1
  Mo  Mo5  1  5.46118000  1.82954000  0.01915960  1
  Mo  Mo6  1  5.44782000  0.00598157  1.80859000  1
  Mo  Mo7  1  3.64689000  1.82241000  1.84218000  1
  Mo  Mo8  1  7.29130000  3.63623000  3.60307000  1
  Mo  Mo9  1  1.80242000  5.45646000  3.60669000  1
  Mo  Mo10  1  1.84515000  3.66165000  1.80888000  1
  Mo  Mo11  1  0.00623946  5.46113000  1.78908000  1
  Mo  Mo12  1  3.64304000  3.62275000  3.63902000  1
  Mo  Mo13  1  5.45939000  5.46767000  3.64796000  1
  Mo  Mo14  1  5.47457000  3.62213000  1.83556000  1
  Mo  Mo15  1  3.64876000  5.46101000  1.81152000  1
