# generated using pymatgen
data_Mo
_symmetry_space_group_name_H-M   'P 1'
_cell_length_a   7.28778040
_cell_length_b   7.28778040
_cell_length_c   3.64389014
_cell_angle_alpha   90.00000000
_cell_angle_beta   90.00000000
_cell_angle_gamma   90.00000000
_symmetry_Int_Tables_number   1
_chemical_formula_structural   Mo
_chemical_formula_sum   Mo16
_cell_volume   193.53335759
_cell_formula_units_Z   16
loop_
 _symmetry_equiv_pos_site_id
 _symmetry_equiv_pos_as_xyz
  1  'x, y, z'
loop_
 _atom_site_type_symbol
 _atom_site_label
 _atom_site_symmetry_multiplicity
 _atom_site_fract_x
 _atom_site_fract_y
 _atom_site_fract_z
 _atom_site_occupancy
  Mo  Mo0  1  0.01099430  7.31027000  -0.02361270  1
  Mo  Mo1  1  1.85859000  1.78686000  3.64842000  1
  Mo  Mo2  1  1.88229000  -0.00865813  1.78281000  1
  Mo  Mo3  1  7.27265000  1.69553000  1.88279000  1
  Mo  Mo4  1  3.60948000  -0.03600730  3.65278000  1
  Mo  Mo5  1  5.27753000  1.80199000  3.63704000  1
  Mo  Mo6  1  5.44921000  7.27936000  1.88318000  1
  Mo  Mo7  1  3.60294000  1.85653000  1.76543000  1
  Mo  Mo8  1  7.27357000  3.63161000  3.75058000  1
  Mo  Mo9  1  1.91919000  5.53222000  3.52528000  1
  Mo  Mo10  1  1.81204000  3.64143000  1.77953000  1
  Mo  Mo11  1  7.30618000  5.53873000  1.80648000  1
  Mo  Mo12  1  3.57316000  3.63087000  -0.14006200  1
  Mo  Mo13  1  5.49063000  5.46235000  3.66150000  1
  Mo  Mo14  1  5.42602000  3.67344000  1.95875000  1
  Mo  Mo15  1  3.74729000  5.42748000  1.82889000  1
