# generated using pymatgen
data_Mo
_symmetry_space_group_name_H-M   'P 1'
_cell_length_a   7.28778040
_cell_length_b   7.28778040
_cell_length_c   3.64389014
_cell_angle_alpha   90.00000000
_cell_angle_beta   90.00000000
_cell_angle_gamma   90.00000000
_symmetry_Int_Tables_number   1
_chemical_formula_structural   Mo
_chemical_formula_sum   Mo16
_cell_volume   193.53335759
_cell_formula_units_Z   16
loop_
 _symmetry_equiv_pos_site_id
 _symmetry_equiv_pos_as_xyz
  1  'x, y, z'
loop_
 _atom_site_type_symbol
 _atom_site_label
 _atom_site_symmetry_multiplicity
 _atom_site_fract_x
 _atom_site_fract_y
 _atom_site_fract_z
 _atom_site_occupancy
  Mo  Mo0  1  0.03736040  7.30034000  0.11326600  1
  Mo  Mo1  1  1.87962000  1.94769000  3.59439000  1
  Mo  Mo2  1  1.90387000  -0.06241110  1.74820000  1
  Mo  Mo3  1  7.36646000  1.79607000  1.78497000  1
  Mo  Mo4  1  3.50245000  -0.03078550  3.48607000  1
  Mo  Mo5  1  5.45716000  1.75763000  3.68464000  1
  Mo  Mo6  1  5.42538000  7.32488000  1.89371000  1
  Mo  Mo7  1  3.73176000  1.79319000  1.80033000  1
  Mo  Mo8  1  7.25026000  3.57186000  3.65675000  1
  Mo  Mo9  1  1.79191000  5.37100000  3.64263000  1
  Mo  Mo10  1  1.81102000  3.66857000  1.81622000  1
  Mo  Mo11  1  7.30837000  5.39196000  1.89773000  1
  Mo  Mo12  1  3.61123000  3.67984000  0.01407170  1
  Mo  Mo13  1  5.38129000  5.54643000  3.60982000  1
  Mo  Mo14  1  5.50713000  3.62371000  1.88822000  1
  Mo  Mo15  1  3.54649000  5.54403000  1.76879000  1
