# generated using pymatgen
data_Mo
_symmetry_space_group_name_H-M   'P 1'
_cell_length_a   7.28778040
_cell_length_b   7.28778040
_cell_length_c   3.64389014
_cell_angle_alpha   90.00000000
_cell_angle_beta   90.00000000
_cell_angle_gamma   90.00000000
_symmetry_Int_Tables_number   1
_chemical_formula_structural   Mo
_chemical_formula_sum   Mo16
_cell_volume   193.53335759
_cell_formula_units_Z   16
loop_
 _symmetry_equiv_pos_site_id
 _symmetry_equiv_pos_as_xyz
  1  'x, y, z'
loop_
 _atom_site_type_symbol
 _atom_site_label
 _atom_site_symmetry_multiplicity
 _atom_site_fract_x
 _atom_site_fract_y
 _atom_site_fract_z
 _atom_site_occupancy
  Mo  Mo0  1  0.02371180  7.34680000  0.06420440  1
  Mo  Mo1  1  1.80270000  1.84045000  3.55208000  1
  Mo  Mo2  1  1.85489000  -0.02374110  1.82656000  1
  Mo  Mo3  1  7.28599000  1.81433000  1.80748000  1
  Mo  Mo4  1  3.61072000  -0.07677080  3.56237000  1
  Mo  Mo5  1  5.35461000  1.84304000  3.72162000  1
  Mo  Mo6  1  5.44541000  7.30716000  1.93613000  1
  Mo  Mo7  1  3.65888000  1.84773000  1.80759000  1
  Mo  Mo8  1  7.27538000  3.62796000  3.63954000  1
  Mo  Mo9  1  1.88240000  5.54137000  3.61595000  1
  Mo  Mo10  1  1.74941000  3.61342000  1.77033000  1
  Mo  Mo11  1  7.39875000  5.43978000  1.77888000  1
  Mo  Mo12  1  3.58854000  3.72111000  -0.01166960  1
  Mo  Mo13  1  5.45793000  5.38185000  3.64467000  1
  Mo  Mo14  1  5.46542000  3.57961000  1.79896000  1
  Mo  Mo15  1  3.65703000  5.41990000  1.88509000  1
