# generated using pymatgen
data_Mo
_symmetry_space_group_name_H-M   'P 1'
_cell_length_a   7.28778040
_cell_length_b   7.28778040
_cell_length_c   3.64389014
_cell_angle_alpha   90.00000000
_cell_angle_beta   90.00000000
_cell_angle_gamma   90.00000000
_symmetry_Int_Tables_number   1
_chemical_formula_structural   Mo
_chemical_formula_sum   Mo16
_cell_volume   193.53335759
_cell_formula_units_Z   16
loop_
 _symmetry_equiv_pos_site_id
 _symmetry_equiv_pos_as_xyz
  1  'x, y, z'
loop_
 _atom_site_type_symbol
 _atom_site_label
 _atom_site_symmetry_multiplicity
 _atom_site_fract_x
 _atom_site_fract_y
 _atom_site_fract_z
 _atom_site_occupancy
  Mo  Mo0  1  0.03786180  7.32311000  -0.03446830  1
  Mo  Mo1  1  1.73983000  1.89942000  3.67410000  1
  Mo  Mo2  1  1.88634000  -0.05706570  1.80604000  1
  Mo  Mo3  1  7.29196000  1.73437000  1.77998000  1
  Mo  Mo4  1  3.68626000  -0.05735830  3.68566000  1
  Mo  Mo5  1  5.39251000  1.82382000  3.66948000  1
  Mo  Mo6  1  5.40990000  7.28387000  1.90226000  1
  Mo  Mo7  1  3.68370000  1.80356000  1.75091000  1
  Mo  Mo8  1  7.30183000  3.61760000  3.72314000  1
  Mo  Mo9  1  1.83199000  5.47282000  3.56110000  1
  Mo  Mo10  1  1.71001000  3.69546000  1.78089000  1
  Mo  Mo11  1  7.28425000  5.45341000  1.85741000  1
  Mo  Mo12  1  3.73314000  3.74363000  -0.05556990  1
  Mo  Mo13  1  5.43511000  5.48022000  3.62664000  1
  Mo  Mo14  1  5.51928000  3.54265000  1.81414000  1
  Mo  Mo15  1  3.56780000  5.46448000  1.85807000  1
