# generated using pymatgen
data_Mo
_symmetry_space_group_name_H-M   'P 1'
_cell_length_a   7.28778040
_cell_length_b   7.28778040
_cell_length_c   3.64389014
_cell_angle_alpha   90.00000000
_cell_angle_beta   90.00000000
_cell_angle_gamma   90.00000000
_symmetry_Int_Tables_number   1
_chemical_formula_structural   Mo
_chemical_formula_sum   Mo16
_cell_volume   193.53335759
_cell_formula_units_Z   16
loop_
 _symmetry_equiv_pos_site_id
 _symmetry_equiv_pos_as_xyz
  1  'x, y, z'
loop_
 _atom_site_type_symbol
 _atom_site_label
 _atom_site_symmetry_multiplicity
 _atom_site_fract_x
 _atom_site_fract_y
 _atom_site_fract_z
 _atom_site_occupancy
  Mo  Mo0  1  0.02117800  7.31498000  0.02421600  1
  Mo  Mo1  1  1.88950000  1.76892000  3.62945000  1
  Mo  Mo2  1  1.93982000  -0.05750890  1.83119000  1
  Mo  Mo3  1  7.22719000  1.86066000  1.90543000  1
  Mo  Mo4  1  3.57031000  -0.09515700  3.66767000  1
  Mo  Mo5  1  5.47703000  1.74325000  3.62691000  1
  Mo  Mo6  1  5.33127000  7.30042000  1.77578000  1
  Mo  Mo7  1  3.57234000  1.81976000  1.86218000  1
  Mo  Mo8  1  7.20170000  3.60559000  3.59929000  1
  Mo  Mo9  1  1.88049000  5.43079000  3.63414000  1
  Mo  Mo10  1  1.77983000  3.73256000  1.78036000  1
  Mo  Mo11  1  7.33578000  5.49724000  1.75374000  1
  Mo  Mo12  1  3.58267000  3.67829000  -0.04805070  1
  Mo  Mo13  1  5.47262000  5.46715000  3.73021000  1
  Mo  Mo14  1  5.51976000  3.71018000  1.86477000  1
  Mo  Mo15  1  3.71030000  5.44689000  1.76249000  1
