# generated using pymatgen
data_Mo
_symmetry_space_group_name_H-M   'P 1'
_cell_length_a   7.28778040
_cell_length_b   7.28778040
_cell_length_c   3.64389014
_cell_angle_alpha   90.00000000
_cell_angle_beta   90.00000000
_cell_angle_gamma   90.00000000
_symmetry_Int_Tables_number   1
_chemical_formula_structural   Mo
_chemical_formula_sum   Mo16
_cell_volume   193.53335759
_cell_formula_units_Z   16
loop_
 _symmetry_equiv_pos_site_id
 _symmetry_equiv_pos_as_xyz
  1  'x, y, z'
loop_
 _atom_site_type_symbol
 _atom_site_label
 _atom_site_symmetry_multiplicity
 _atom_site_fract_x
 _atom_site_fract_y
 _atom_site_fract_z
 _atom_site_occupancy
  Mo  Mo0  1  0.09785250  7.32062000  0.09594850  1
  Mo  Mo1  1  1.78493000  1.84612000  3.60787000  1
  Mo  Mo2  1  1.84705000  0.01422230  1.87510000  1
  Mo  Mo3  1  7.36583000  1.68602000  1.78625000  1
  Mo  Mo4  1  3.54226000  -0.03048320  3.66536000  1
  Mo  Mo5  1  5.49691000  1.73210000  3.62058000  1
  Mo  Mo6  1  5.43671000  7.25344000  1.83215000  1
  Mo  Mo7  1  3.68153000  1.83754000  1.73453000  1
  Mo  Mo8  1  7.22167000  3.56061000  3.59722000  1
  Mo  Mo9  1  1.77031000  5.53614000  3.66287000  1
  Mo  Mo10  1  1.78791000  3.62215000  1.85422000  1
  Mo  Mo11  1  7.26011000  5.60935000  1.78363000  1
  Mo  Mo12  1  3.71980000  3.62508000  0.03031420  1
  Mo  Mo13  1  5.46095000  5.49847000  3.65029000  1
  Mo  Mo14  1  5.35375000  3.69036000  1.80531000  1
  Mo  Mo15  1  3.68422000  5.42229000  1.79813000  1
