# generated using pymatgen
data_Mo
_symmetry_space_group_name_H-M   'P 1'
_cell_length_a   7.28778040
_cell_length_b   7.28778040
_cell_length_c   3.64389014
_cell_angle_alpha   90.00000000
_cell_angle_beta   90.00000000
_cell_angle_gamma   90.00000000
_symmetry_Int_Tables_number   1
_chemical_formula_structural   Mo
_chemical_formula_sum   Mo16
_cell_volume   193.53335759
_cell_formula_units_Z   16
loop_
 _symmetry_equiv_pos_site_id
 _symmetry_equiv_pos_as_xyz
  1  'x, y, z'
loop_
 _atom_site_type_symbol
 _atom_site_label
 _atom_site_symmetry_multiplicity
 _atom_site_fract_x
 _atom_site_fract_y
 _atom_site_fract_z
 _atom_site_occupancy
  Mo  Mo0  1  0.07209630  7.25274000  0.09040800  1
  Mo  Mo1  1  1.78391000  1.68924000  3.60963000  1
  Mo  Mo2  1  1.73824000  -0.00034823  1.78876000  1
  Mo  Mo3  1  7.24682000  1.87689000  1.83530000  1
  Mo  Mo4  1  3.57145000  -0.06274520  3.62786000  1
  Mo  Mo5  1  5.53301000  1.80678000  3.65187000  1
  Mo  Mo6  1  5.45151000  7.39762000  1.82227000  1
  Mo  Mo7  1  3.54169000  1.70664000  1.86887000  1
  Mo  Mo8  1  7.36107000  3.68780000  3.57006000  1
  Mo  Mo9  1  1.75984000  5.43863000  3.71518000  1
  Mo  Mo10  1  1.76695000  3.61654000  1.74896000  1
  Mo  Mo11  1  7.32044000  5.48188000  1.81621000  1
  Mo  Mo12  1  3.62541000  3.63671000  -0.02230980  1
  Mo  Mo13  1  5.47820000  5.46816000  3.61579000  1
  Mo  Mo14  1  5.53668000  3.74811000  1.86782000  1
  Mo  Mo15  1  3.72448000  5.47936000  1.79311000  1
