# generated using pymatgen
data_Mo
_symmetry_space_group_name_H-M   'P 1'
_cell_length_a   7.28778040
_cell_length_b   7.28778040
_cell_length_c   3.64389014
_cell_angle_alpha   90.00000000
_cell_angle_beta   90.00000000
_cell_angle_gamma   90.00000000
_symmetry_Int_Tables_number   1
_chemical_formula_structural   Mo
_chemical_formula_sum   Mo16
_cell_volume   193.53335759
_cell_formula_units_Z   16
loop_
 _symmetry_equiv_pos_site_id
 _symmetry_equiv_pos_as_xyz
  1  'x, y, z'
loop_
 _atom_site_type_symbol
 _atom_site_label
 _atom_site_symmetry_multiplicity
 _atom_site_fract_x
 _atom_site_fract_y
 _atom_site_fract_z
 _atom_site_occupancy
  Mo  Mo0  1  0.06119380  7.22609000  -0.03003230  1
  Mo  Mo1  1  1.83050000  1.77982000  3.60841000  1
  Mo  Mo2  1  1.80495000  0.08582140  1.86090000  1
  Mo  Mo3  1  7.35194000  1.77867000  1.82255000  1
  Mo  Mo4  1  3.60121000  0.03694440  3.58242000  1
  Mo  Mo5  1  5.47128000  1.76567000  3.63489000  1
  Mo  Mo6  1  5.47268000  7.23185000  1.75228000  1
  Mo  Mo7  1  3.55167000  1.79785000  1.87383000  1
  Mo  Mo8  1  7.28716000  3.74375000  3.66575000  1
  Mo  Mo9  1  1.80551000  5.50053000  3.65894000  1
  Mo  Mo10  1  1.86276000  3.56355000  1.84631000  1
  Mo  Mo11  1  7.28480000  5.44311000  1.86910000  1
  Mo  Mo12  1  3.61118000  3.68328000  -0.03003330  1
  Mo  Mo13  1  5.42803000  5.50316000  3.60816000  1
  Mo  Mo14  1  5.51642000  3.56850000  1.78918000  1
  Mo  Mo15  1  3.57051000  5.51539000  1.88712000  1
