# generated using pymatgen
data_Mo
_symmetry_space_group_name_H-M   'P 1'
_cell_length_a   7.28778040
_cell_length_b   7.28778040
_cell_length_c   3.64389014
_cell_angle_alpha   90.00000000
_cell_angle_beta   90.00000000
_cell_angle_gamma   90.00000000
_symmetry_Int_Tables_number   1
_chemical_formula_structural   Mo
_chemical_formula_sum   Mo16
_cell_volume   193.53335759
_cell_formula_units_Z   16
loop_
 _symmetry_equiv_pos_site_id
 _symmetry_equiv_pos_as_xyz
  1  'x, y, z'
loop_
 _atom_site_type_symbol
 _atom_site_label
 _atom_site_symmetry_multiplicity
 _atom_site_fract_x
 _atom_site_fract_y
 _atom_site_fract_z
 _atom_site_occupancy
  Mo  Mo0  1  -0.07691680  7.25170000  0.00567809  1
  Mo  Mo1  1  1.80383000  1.80578000  3.68565000  1
  Mo  Mo2  1  1.82619000  -0.07095660  1.78228000  1
  Mo  Mo3  1  7.20322000  1.93943000  1.73236000  1
  Mo  Mo4  1  3.73202000  0.02064520  3.62299000  1
  Mo  Mo5  1  5.47486000  1.83882000  3.64950000  1
  Mo  Mo6  1  5.38011000  7.28688000  1.68674000  1
  Mo  Mo7  1  3.72198000  1.76103000  1.93067000  1
  Mo  Mo8  1  7.22477000  3.66502000  3.62436000  1
  Mo  Mo9  1  1.81185000  5.51207000  3.70624000  1
  Mo  Mo10  1  1.82823000  3.65832000  1.91669000  1
  Mo  Mo11  1  7.32922000  5.35098000  1.80395000  1
  Mo  Mo12  1  3.70302000  3.69484000  0.07638430  1
  Mo  Mo13  1  5.41213000  5.45734000  3.58024000  1
  Mo  Mo14  1  5.50410000  3.53072000  1.75629000  1
  Mo  Mo15  1  3.63318000  5.52137000  1.83976000  1
