# generated using pymatgen
data_Mo
_symmetry_space_group_name_H-M   'P 1'
_cell_length_a   7.28778040
_cell_length_b   7.28778040
_cell_length_c   3.64389014
_cell_angle_alpha   90.00000000
_cell_angle_beta   90.00000000
_cell_angle_gamma   90.00000000
_symmetry_Int_Tables_number   1
_chemical_formula_structural   Mo
_chemical_formula_sum   Mo16
_cell_volume   193.53335759
_cell_formula_units_Z   16
loop_
 _symmetry_equiv_pos_site_id
 _symmetry_equiv_pos_as_xyz
  1  'x, y, z'
loop_
 _atom_site_type_symbol
 _atom_site_label
 _atom_site_symmetry_multiplicity
 _atom_site_fract_x
 _atom_site_fract_y
 _atom_site_fract_z
 _atom_site_occupancy
  Mo  Mo0  1  0.02623570  7.26371000  -0.02134330  1
  Mo  Mo1  1  1.87106000  1.86489000  3.60194000  1
  Mo  Mo2  1  1.69254000  0.14100500  1.77455000  1
  Mo  Mo3  1  7.30909000  1.84327000  1.90998000  1
  Mo  Mo4  1  3.61630000  0.01360150  3.65389000  1
  Mo  Mo5  1  5.42502000  1.74875000  3.66847000  1
  Mo  Mo6  1  5.54098000  7.24220000  1.83409000  1
  Mo  Mo7  1  3.55316000  1.92452000  1.80617000  1
  Mo  Mo8  1  7.20416000  3.55931000  3.67261000  1
  Mo  Mo9  1  1.72858000  5.42223000  3.66512000  1
  Mo  Mo10  1  1.79495000  3.58956000  1.85369000  1
  Mo  Mo11  1  7.37732000  5.51408000  1.87162000  1
  Mo  Mo12  1  3.58877000  3.58744000  -0.10019600  1
  Mo  Mo13  1  5.57093000  5.44947000  3.67409000  1
  Mo  Mo14  1  5.46237000  3.62875000  1.81027000  1
  Mo  Mo15  1  3.75031000  5.43123000  1.72482000  1
