# generated using pymatgen
data_Mo
_symmetry_space_group_name_H-M   'P 1'
_cell_length_a   7.27806742
_cell_length_b   7.27806742
_cell_length_c   3.63903379
_cell_angle_alpha   90.00000000
_cell_angle_beta   90.00000000
_cell_angle_gamma   90.00000000
_symmetry_Int_Tables_number   1
_chemical_formula_structural   Mo
_chemical_formula_sum   Mo16
_cell_volume   192.76058556
_cell_formula_units_Z   16
loop_
 _symmetry_equiv_pos_site_id
 _symmetry_equiv_pos_as_xyz
  1  'x, y, z'
loop_
 _atom_site_type_symbol
 _atom_site_label
 _atom_site_symmetry_multiplicity
 _atom_site_fract_x
 _atom_site_fract_y
 _atom_site_fract_z
 _atom_site_occupancy
  Mo  Mo0  1  -0.00200361  7.26690000  3.66022000  1
  Mo  Mo1  1  1.80532000  1.82352000  -0.01438690  1
  Mo  Mo2  1  1.83796000  7.30527000  1.82663000  1
  Mo  Mo3  1  7.30280000  1.81819000  1.80641000  1
  Mo  Mo4  1  3.65877000  7.26892000  -0.01948500  1
  Mo  Mo5  1  5.44796000  1.81311000  -0.01597710  1
  Mo  Mo6  1  5.48026000  0.01747810  1.78722000  1
  Mo  Mo7  1  3.63212000  1.80641000  1.80381000  1
  Mo  Mo8  1  7.27446000  3.64560000  3.66304000  1
  Mo  Mo9  1  1.80600000  5.45001000  3.65461000  1
  Mo  Mo10  1  1.80762000  3.62920000  1.83763000  1
  Mo  Mo11  1  -0.01273130  5.45712000  1.83157000  1
  Mo  Mo12  1  3.62772000  3.64640000  3.64694000  1
  Mo  Mo13  1  5.45850000  5.45295000  3.63432000  1
  Mo  Mo14  1  5.46392000  3.63490000  1.82313000  1
  Mo  Mo15  1  3.63533000  5.46606000  1.82535000  1
