# generated using pymatgen
data_Mo
_symmetry_space_group_name_H-M   'P 1'
_cell_length_a   7.28778040
_cell_length_b   7.28778040
_cell_length_c   3.64389014
_cell_angle_alpha   90.00000000
_cell_angle_beta   90.00000000
_cell_angle_gamma   90.00000000
_symmetry_Int_Tables_number   1
_chemical_formula_structural   Mo
_chemical_formula_sum   Mo16
_cell_volume   193.53335759
_cell_formula_units_Z   16
loop_
 _symmetry_equiv_pos_site_id
 _symmetry_equiv_pos_as_xyz
  1  'x, y, z'
loop_
 _atom_site_type_symbol
 _atom_site_label
 _atom_site_symmetry_multiplicity
 _atom_site_fract_x
 _atom_site_fract_y
 _atom_site_fract_z
 _atom_site_occupancy
  Mo  Mo0  1  0.09070160  7.30342000  -0.07571700  1
  Mo  Mo1  1  1.84418000  1.78980000  3.70276000  1
  Mo  Mo2  1  1.82270000  -0.00780534  1.81309000  1
  Mo  Mo3  1  7.21167000  1.79785000  1.78321000  1
  Mo  Mo4  1  3.58394000  -0.03237040  3.67659000  1
  Mo  Mo5  1  5.31724000  1.81562000  3.63205000  1
  Mo  Mo6  1  5.52034000  7.26245000  1.85983000  1
  Mo  Mo7  1  3.61153000  1.85307000  1.83086000  1
  Mo  Mo8  1  7.27940000  3.61526000  3.57988000  1
  Mo  Mo9  1  1.82271000  5.36753000  3.61781000  1
  Mo  Mo10  1  1.76778000  3.65346000  1.82558000  1
  Mo  Mo11  1  7.35948000  5.59076000  1.87622000  1
  Mo  Mo12  1  3.64680000  3.57489000  0.02165650  1
  Mo  Mo13  1  5.48772000  5.54205000  3.66698000  1
  Mo  Mo14  1  5.49574000  3.69421000  1.80521000  1
  Mo  Mo15  1  3.64984000  5.40382000  1.78380000  1
