# generated using pymatgen
data_Mo
_symmetry_space_group_name_H-M   'P 1'
_cell_length_a   7.28778040
_cell_length_b   7.28778040
_cell_length_c   3.64389014
_cell_angle_alpha   90.00000000
_cell_angle_beta   90.00000000
_cell_angle_gamma   90.00000000
_symmetry_Int_Tables_number   1
_chemical_formula_structural   Mo
_chemical_formula_sum   Mo16
_cell_volume   193.53335759
_cell_formula_units_Z   16
loop_
 _symmetry_equiv_pos_site_id
 _symmetry_equiv_pos_as_xyz
  1  'x, y, z'
loop_
 _atom_site_type_symbol
 _atom_site_label
 _atom_site_symmetry_multiplicity
 _atom_site_fract_x
 _atom_site_fract_y
 _atom_site_fract_z
 _atom_site_occupancy
  Mo  Mo0  1  0.06260890  7.26377000  0.09277630  1
  Mo  Mo1  1  1.84164000  1.92054000  3.57995000  1
  Mo  Mo2  1  1.71248000  -0.08372160  1.78354000  1
  Mo  Mo3  1  7.37944000  1.86953000  1.82837000  1
  Mo  Mo4  1  3.58891000  0.05477520  3.63090000  1
  Mo  Mo5  1  5.51012000  1.80896000  3.62023000  1
  Mo  Mo6  1  5.51292000  7.29056000  1.81583000  1
  Mo  Mo7  1  3.48456000  1.77044000  1.85450000  1
  Mo  Mo8  1  7.34546000  3.66450000  3.65620000  1
  Mo  Mo9  1  1.88058000  5.44450000  3.58220000  1
  Mo  Mo10  1  1.88745000  3.59639000  1.79608000  1
  Mo  Mo11  1  7.17440000  5.42598000  1.78323000  1
  Mo  Mo12  1  3.61553000  3.55923000  0.01164110  1
  Mo  Mo13  1  5.43003000  5.53043000  3.69371000  1
  Mo  Mo14  1  5.42660000  3.64574000  1.83748000  1
  Mo  Mo15  1  3.65906000  5.46235000  1.83314000  1
