# generated using pymatgen
data_Mo
_symmetry_space_group_name_H-M   'P 1'
_cell_length_a   7.28778040
_cell_length_b   7.28778040
_cell_length_c   3.64389014
_cell_angle_alpha   90.00000000
_cell_angle_beta   90.00000000
_cell_angle_gamma   90.00000000
_symmetry_Int_Tables_number   1
_chemical_formula_structural   Mo
_chemical_formula_sum   Mo16
_cell_volume   193.53335759
_cell_formula_units_Z   16
loop_
 _symmetry_equiv_pos_site_id
 _symmetry_equiv_pos_as_xyz
  1  'x, y, z'
loop_
 _atom_site_type_symbol
 _atom_site_label
 _atom_site_symmetry_multiplicity
 _atom_site_fract_x
 _atom_site_fract_y
 _atom_site_fract_z
 _atom_site_occupancy
  Mo  Mo0  1  0.02069840  7.37900000  -0.07301250  1
  Mo  Mo1  1  1.85326000  1.81949000  3.69977000  1
  Mo  Mo2  1  1.84919000  0.01305020  1.91576000  1
  Mo  Mo3  1  7.29759000  1.82795000  1.86644000  1
  Mo  Mo4  1  3.55710000  -0.07577840  3.60872000  1
  Mo  Mo5  1  5.49834000  1.84953000  3.62369000  1
  Mo  Mo6  1  5.44556000  7.25816000  1.73276000  1
  Mo  Mo7  1  3.61662000  1.85384000  1.73394000  1
  Mo  Mo8  1  7.35105000  3.49509000  3.65970000  1
  Mo  Mo9  1  1.70864000  5.36993000  3.75083000  1
  Mo  Mo10  1  1.71841000  3.70651000  1.87975000  1
  Mo  Mo11  1  7.29198000  5.45858000  1.84813000  1
  Mo  Mo12  1  3.62607000  3.71090000  -0.01830410  1
  Mo  Mo13  1  5.50677000  5.44678000  3.54979000  1
  Mo  Mo14  1  5.64250000  3.66064000  1.82362000  1
  Mo  Mo15  1  3.52799000  5.45034000  1.79819000  1
