# generated using pymatgen
data_Mo
_symmetry_space_group_name_H-M   'P 1'
_cell_length_a   7.28778040
_cell_length_b   7.28778040
_cell_length_c   3.64389014
_cell_angle_alpha   90.00000000
_cell_angle_beta   90.00000000
_cell_angle_gamma   90.00000000
_symmetry_Int_Tables_number   1
_chemical_formula_structural   Mo
_chemical_formula_sum   Mo16
_cell_volume   193.53335759
_cell_formula_units_Z   16
loop_
 _symmetry_equiv_pos_site_id
 _symmetry_equiv_pos_as_xyz
  1  'x, y, z'
loop_
 _atom_site_type_symbol
 _atom_site_label
 _atom_site_symmetry_multiplicity
 _atom_site_fract_x
 _atom_site_fract_y
 _atom_site_fract_z
 _atom_site_occupancy
  Mo  Mo0  1  -0.02258350  7.30976000  -0.07309620  1
  Mo  Mo1  1  1.81217000  1.84064000  3.67829000  1
  Mo  Mo2  1  1.82097000  -0.04868210  1.91101000  1
  Mo  Mo3  1  7.16733000  1.82359000  1.76882000  1
  Mo  Mo4  1  3.66157000  -0.05921310  3.61630000  1
  Mo  Mo5  1  5.36384000  1.75899000  3.56545000  1
  Mo  Mo6  1  5.52065000  7.33996000  1.78583000  1
  Mo  Mo7  1  3.67022000  1.78712000  1.86773000  1
  Mo  Mo8  1  7.27140000  3.59065000  3.59047000  1
  Mo  Mo9  1  1.87124000  5.38545000  3.69101000  1
  Mo  Mo10  1  1.81465000  3.70071000  1.87913000  1
  Mo  Mo11  1  7.24880000  5.43512000  1.81107000  1
  Mo  Mo12  1  3.67386000  3.62454000  0.12609300  1
  Mo  Mo13  1  5.52582000  5.50515000  3.54683000  1
  Mo  Mo14  1  5.39620000  3.69666000  1.85305000  1
  Mo  Mo15  1  3.71565000  5.53357000  1.78180000  1
