# generated using pymatgen
data_Mo
_symmetry_space_group_name_H-M   'P 1'
_cell_length_a   7.28778040
_cell_length_b   7.28778040
_cell_length_c   3.64389014
_cell_angle_alpha   90.00000000
_cell_angle_beta   90.00000000
_cell_angle_gamma   90.00000000
_symmetry_Int_Tables_number   1
_chemical_formula_structural   Mo
_chemical_formula_sum   Mo16
_cell_volume   193.53335759
_cell_formula_units_Z   16
loop_
 _symmetry_equiv_pos_site_id
 _symmetry_equiv_pos_as_xyz
  1  'x, y, z'
loop_
 _atom_site_type_symbol
 _atom_site_label
 _atom_site_symmetry_multiplicity
 _atom_site_fract_x
 _atom_site_fract_y
 _atom_site_fract_z
 _atom_site_occupancy
  Mo  Mo0  1  -0.03569420  7.30228000  -0.00482366  1
  Mo  Mo1  1  1.86438000  1.78491000  3.67208000  1
  Mo  Mo2  1  1.74128000  0.01641490  1.82568000  1
  Mo  Mo3  1  7.27957000  1.87009000  1.88927000  1
  Mo  Mo4  1  3.56077000  -0.04145760  3.65983000  1
  Mo  Mo5  1  5.53771000  1.79696000  3.52987000  1
  Mo  Mo6  1  5.42391000  7.34798000  1.73473000  1
  Mo  Mo7  1  3.61259000  1.87999000  1.85286000  1
  Mo  Mo8  1  7.23414000  3.59073000  3.65075000  1
  Mo  Mo9  1  1.72083000  5.42774000  3.69555000  1
  Mo  Mo10  1  1.74944000  3.60475000  1.85540000  1
  Mo  Mo11  1  7.21998000  5.53208000  1.78366000  1
  Mo  Mo12  1  3.65211000  3.55907000  -0.04490770  1
  Mo  Mo13  1  5.55420000  5.45175000  3.66713000  1
  Mo  Mo14  1  5.58336000  3.69194000  1.83323000  1
  Mo  Mo15  1  3.81319000  5.40876000  1.79946000  1
