# generated using pymatgen
data_Mo
_symmetry_space_group_name_H-M   'P 1'
_cell_length_a   7.28778040
_cell_length_b   7.28778040
_cell_length_c   3.64389014
_cell_angle_alpha   90.00000000
_cell_angle_beta   90.00000000
_cell_angle_gamma   90.00000000
_symmetry_Int_Tables_number   1
_chemical_formula_structural   Mo
_chemical_formula_sum   Mo16
_cell_volume   193.53335759
_cell_formula_units_Z   16
loop_
 _symmetry_equiv_pos_site_id
 _symmetry_equiv_pos_as_xyz
  1  'x, y, z'
loop_
 _atom_site_type_symbol
 _atom_site_label
 _atom_site_symmetry_multiplicity
 _atom_site_fract_x
 _atom_site_fract_y
 _atom_site_fract_z
 _atom_site_occupancy
  Mo  Mo0  1  -0.06392190  7.10671000  0.10899700  1
  Mo  Mo1  1  1.92991000  1.90967000  3.62619000  1
  Mo  Mo2  1  1.81653000  0.06794470  1.75040000  1
  Mo  Mo3  1  7.16509000  1.78770000  1.83042000  1
  Mo  Mo4  1  3.73278000  0.05499840  3.58692000  1
  Mo  Mo5  1  5.43604000  1.86572000  3.65700000  1
  Mo  Mo6  1  5.45973000  7.31991000  1.84395000  1
  Mo  Mo7  1  3.60015000  1.87003000  1.81700000  1
  Mo  Mo8  1  7.34658000  3.61589000  3.56958000  1
  Mo  Mo9  1  1.78982000  5.52103000  3.70798000  1
  Mo  Mo10  1  1.92726000  3.64899000  1.71263000  1
  Mo  Mo11  1  7.20356000  5.42925000  1.84519000  1
  Mo  Mo12  1  3.60672000  3.55691000  -0.03505050  1
  Mo  Mo13  1  5.45187000  5.38165000  3.71280000  1
  Mo  Mo14  1  5.41195000  3.61344000  1.85990000  1
  Mo  Mo15  1  3.69771000  5.47416000  1.80589000  1
