# generated using pymatgen
data_Mo
_symmetry_space_group_name_H-M   'P 1'
_cell_length_a   7.28778040
_cell_length_b   7.28778040
_cell_length_c   3.64389014
_cell_angle_alpha   90.00000000
_cell_angle_beta   90.00000000
_cell_angle_gamma   90.00000000
_symmetry_Int_Tables_number   1
_chemical_formula_structural   Mo
_chemical_formula_sum   Mo16
_cell_volume   193.53335759
_cell_formula_units_Z   16
loop_
 _symmetry_equiv_pos_site_id
 _symmetry_equiv_pos_as_xyz
  1  'x, y, z'
loop_
 _atom_site_type_symbol
 _atom_site_label
 _atom_site_symmetry_multiplicity
 _atom_site_fract_x
 _atom_site_fract_y
 _atom_site_fract_z
 _atom_site_occupancy
  Mo  Mo0  1  0.13299700  7.31344000  -0.04157000  1
  Mo  Mo1  1  1.83164000  1.88472000  3.77670000  1
  Mo  Mo2  1  1.76621000  0.02236890  1.84613000  1
  Mo  Mo3  1  7.25480000  1.73747000  1.80433000  1
  Mo  Mo4  1  3.57004000  -0.07190780  3.62036000  1
  Mo  Mo5  1  5.44735000  1.68395000  3.53786000  1
  Mo  Mo6  1  5.49347000  7.28855000  1.73952000  1
  Mo  Mo7  1  3.66147000  1.79217000  1.87650000  1
  Mo  Mo8  1  7.21265000  3.68052000  3.67763000  1
  Mo  Mo9  1  1.78790000  5.36856000  3.66838000  1
  Mo  Mo10  1  1.86333000  3.58033000  1.90732000  1
  Mo  Mo11  1  7.28019000  5.51401000  1.80073000  1
  Mo  Mo12  1  3.71448000  3.76554000  -0.00522916  1
  Mo  Mo13  1  5.40827000  5.61037000  3.61569000  1
  Mo  Mo14  1  5.48049000  3.55717000  1.69181000  1
  Mo  Mo15  1  3.60650000  5.49673000  1.88360000  1
