# generated using pymatgen
data_Mo
_symmetry_space_group_name_H-M   'P 1'
_cell_length_a   7.28778040
_cell_length_b   7.28778040
_cell_length_c   3.64389014
_cell_angle_alpha   90.00000000
_cell_angle_beta   90.00000000
_cell_angle_gamma   90.00000000
_symmetry_Int_Tables_number   1
_chemical_formula_structural   Mo
_chemical_formula_sum   Mo16
_cell_volume   193.53335759
_cell_formula_units_Z   16
loop_
 _symmetry_equiv_pos_site_id
 _symmetry_equiv_pos_as_xyz
  1  'x, y, z'
loop_
 _atom_site_type_symbol
 _atom_site_label
 _atom_site_symmetry_multiplicity
 _atom_site_fract_x
 _atom_site_fract_y
 _atom_site_fract_z
 _atom_site_occupancy
  Mo  Mo0  1  0.02846000  7.28768000  -0.08651720  1
  Mo  Mo1  1  1.68814000  1.81061000  3.70259000  1
  Mo  Mo2  1  1.84832000  0.01649130  1.88149000  1
  Mo  Mo3  1  7.29237000  1.94335000  1.85153000  1
  Mo  Mo4  1  3.55502000  0.03103030  3.64355000  1
  Mo  Mo5  1  5.56910000  1.81280000  3.67358000  1
  Mo  Mo6  1  5.56391000  7.34916000  1.85393000  1
  Mo  Mo7  1  3.73488000  1.75226000  1.72925000  1
  Mo  Mo8  1  7.25436000  3.65814000  3.64072000  1
  Mo  Mo9  1  1.79464000  5.39876000  3.65423000  1
  Mo  Mo10  1  1.76723000  3.73447000  1.73227000  1
  Mo  Mo11  1  7.32963000  5.32899000  1.86215000  1
  Mo  Mo12  1  3.64621000  3.59559000  -0.04274800  1
  Mo  Mo13  1  5.40448000  5.41394000  3.66745000  1
  Mo  Mo14  1  5.43066000  3.53408000  1.85576000  1
  Mo  Mo15  1  3.60437000  5.55663000  1.78055000  1
