# generated using pymatgen
data_Mo
_symmetry_space_group_name_H-M   'P 1'
_cell_length_a   7.28778040
_cell_length_b   7.28778040
_cell_length_c   3.64389014
_cell_angle_alpha   90.00000000
_cell_angle_beta   90.00000000
_cell_angle_gamma   90.00000000
_symmetry_Int_Tables_number   1
_chemical_formula_structural   Mo
_chemical_formula_sum   Mo16
_cell_volume   193.53335759
_cell_formula_units_Z   16
loop_
 _symmetry_equiv_pos_site_id
 _symmetry_equiv_pos_as_xyz
  1  'x, y, z'
loop_
 _atom_site_type_symbol
 _atom_site_label
 _atom_site_symmetry_multiplicity
 _atom_site_fract_x
 _atom_site_fract_y
 _atom_site_fract_z
 _atom_site_occupancy
  Mo  Mo0  1  0.01186160  7.27055000  0.05873360  1
  Mo  Mo1  1  1.76100000  1.89177000  3.63843000  1
  Mo  Mo2  1  1.80294000  0.03828520  1.79952000  1
  Mo  Mo3  1  7.24980000  1.79561000  1.81703000  1
  Mo  Mo4  1  3.54107000  0.00822752  3.59857000  1
  Mo  Mo5  1  5.46674000  1.85840000  3.62009000  1
  Mo  Mo6  1  5.50267000  7.26464000  1.84685000  1
  Mo  Mo7  1  3.66840000  1.82002000  1.81919000  1
  Mo  Mo8  1  7.23108000  3.63428000  3.56175000  1
  Mo  Mo9  1  1.85504000  5.43904000  3.59724000  1
  Mo  Mo10  1  1.86646000  3.59092000  1.93911000  1
  Mo  Mo11  1  7.22854000  5.47526000  1.77413000  1
  Mo  Mo12  1  3.71363000  3.57755000  0.08283490  1
  Mo  Mo13  1  5.50989000  5.43687000  3.62462000  1
  Mo  Mo14  1  5.34745000  3.72997000  1.83129000  1
  Mo  Mo15  1  3.75521000  5.39262000  1.79039000  1
