# generated using pymatgen
data_Mo
_symmetry_space_group_name_H-M   'P 1'
_cell_length_a   7.28778040
_cell_length_b   7.28778040
_cell_length_c   3.64389014
_cell_angle_alpha   90.00000000
_cell_angle_beta   90.00000000
_cell_angle_gamma   90.00000000
_symmetry_Int_Tables_number   1
_chemical_formula_structural   Mo
_chemical_formula_sum   Mo16
_cell_volume   193.53335759
_cell_formula_units_Z   16
loop_
 _symmetry_equiv_pos_site_id
 _symmetry_equiv_pos_as_xyz
  1  'x, y, z'
loop_
 _atom_site_type_symbol
 _atom_site_label
 _atom_site_symmetry_multiplicity
 _atom_site_fract_x
 _atom_site_fract_y
 _atom_site_fract_z
 _atom_site_occupancy
  Mo  Mo0  1  0.07233770  7.23199000  -0.02953130  1
  Mo  Mo1  1  1.92694000  1.81041000  3.71892000  1
  Mo  Mo2  1  1.77801000  -0.02515900  1.73978000  1
  Mo  Mo3  1  7.26239000  1.82116000  1.85838000  1
  Mo  Mo4  1  3.63135000  -0.07085050  3.68052000  1
  Mo  Mo5  1  5.48928000  1.71468000  3.56149000  1
  Mo  Mo6  1  5.52027000  7.33648000  1.79674000  1
  Mo  Mo7  1  3.58351000  1.81559000  1.87695000  1
  Mo  Mo8  1  7.32766000  3.67939000  3.67156000  1
  Mo  Mo9  1  1.75222000  5.46625000  3.66822000  1
  Mo  Mo10  1  1.85019000  3.70796000  1.84681000  1
  Mo  Mo11  1  7.29014000  5.55093000  1.74821000  1
  Mo  Mo12  1  3.52313000  3.63796000  -0.04346660  1
  Mo  Mo13  1  5.44865000  5.44153000  3.65075000  1
  Mo  Mo14  1  5.39781000  3.67830000  1.84474000  1
  Mo  Mo15  1  3.65790000  5.42738000  1.80971000  1
