# generated using pymatgen
data_Mo
_symmetry_space_group_name_H-M   'P 1'
_cell_length_a   7.28778040
_cell_length_b   7.28778040
_cell_length_c   3.64389014
_cell_angle_alpha   90.00000000
_cell_angle_beta   90.00000000
_cell_angle_gamma   90.00000000
_symmetry_Int_Tables_number   1
_chemical_formula_structural   Mo
_chemical_formula_sum   Mo16
_cell_volume   193.53335759
_cell_formula_units_Z   16
loop_
 _symmetry_equiv_pos_site_id
 _symmetry_equiv_pos_as_xyz
  1  'x, y, z'
loop_
 _atom_site_type_symbol
 _atom_site_label
 _atom_site_symmetry_multiplicity
 _atom_site_fract_x
 _atom_site_fract_y
 _atom_site_fract_z
 _atom_site_occupancy
  Mo  Mo0  1  -0.00219090  7.26262000  -0.01461700  1
  Mo  Mo1  1  1.83584000  1.84648000  3.56966000  1
  Mo  Mo2  1  1.81961000  0.07566270  1.81855000  1
  Mo  Mo3  1  7.28738000  1.72068000  1.78772000  1
  Mo  Mo4  1  3.66285000  0.02723320  3.75375000  1
  Mo  Mo5  1  5.40903000  1.74870000  3.67311000  1
  Mo  Mo6  1  5.43573000  7.25463000  1.81466000  1
  Mo  Mo7  1  3.61289000  1.80114000  1.87331000  1
  Mo  Mo8  1  7.24411000  3.74163000  3.68285000  1
  Mo  Mo9  1  1.82342000  5.47961000  3.56780000  1
  Mo  Mo10  1  1.90112000  3.52540000  1.72548000  1
  Mo  Mo11  1  7.32889000  5.50999000  1.75061000  1
  Mo  Mo12  1  3.62566000  3.63751000  -0.06871050  1
  Mo  Mo13  1  5.53195000  5.47287000  3.68608000  1
  Mo  Mo14  1  5.34467000  3.71874000  1.91640000  1
  Mo  Mo15  1  3.65082000  5.40111000  1.86313000  1
