# generated using pymatgen
data_Mo
_symmetry_space_group_name_H-M   'P 1'
_cell_length_a   7.28778040
_cell_length_b   7.28778040
_cell_length_c   3.64389014
_cell_angle_alpha   90.00000000
_cell_angle_beta   90.00000000
_cell_angle_gamma   90.00000000
_symmetry_Int_Tables_number   1
_chemical_formula_structural   Mo
_chemical_formula_sum   Mo16
_cell_volume   193.53335759
_cell_formula_units_Z   16
loop_
 _symmetry_equiv_pos_site_id
 _symmetry_equiv_pos_as_xyz
  1  'x, y, z'
loop_
 _atom_site_type_symbol
 _atom_site_label
 _atom_site_symmetry_multiplicity
 _atom_site_fract_x
 _atom_site_fract_y
 _atom_site_fract_z
 _atom_site_occupancy
  Mo  Mo0  1  0.17496100  7.28651000  -0.03384460  1
  Mo  Mo1  1  1.91612000  1.82876000  3.62840000  1
  Mo  Mo2  1  1.74678000  -0.00321817  1.85022000  1
  Mo  Mo3  1  7.32812000  1.87144000  1.86693000  1
  Mo  Mo4  1  3.53560000  -0.02939820  3.66185000  1
  Mo  Mo5  1  5.52608000  1.78851000  3.61017000  1
  Mo  Mo6  1  5.46400000  7.30588000  1.78667000  1
  Mo  Mo7  1  3.60124000  1.87953000  1.79856000  1
  Mo  Mo8  1  7.25329000  3.58420000  3.64579000  1
  Mo  Mo9  1  1.76703000  5.35779000  3.62051000  1
  Mo  Mo10  1  1.81730000  3.61609000  1.81295000  1
  Mo  Mo11  1  7.22215000  5.41474000  1.91154000  1
  Mo  Mo12  1  3.74112000  3.69537000  -0.02955980  1
  Mo  Mo13  1  5.40830000  5.52946000  3.71337000  1
  Mo  Mo14  1  5.46438000  3.65115000  1.79659000  1
  Mo  Mo15  1  3.54529000  5.44720000  1.75964000  1
