# generated using pymatgen
data_Mo
_symmetry_space_group_name_H-M   'P 1'
_cell_length_a   7.28778040
_cell_length_b   7.28778040
_cell_length_c   3.64389014
_cell_angle_alpha   90.00000000
_cell_angle_beta   90.00000000
_cell_angle_gamma   90.00000000
_symmetry_Int_Tables_number   1
_chemical_formula_structural   Mo
_chemical_formula_sum   Mo16
_cell_volume   193.53335759
_cell_formula_units_Z   16
loop_
 _symmetry_equiv_pos_site_id
 _symmetry_equiv_pos_as_xyz
  1  'x, y, z'
loop_
 _atom_site_type_symbol
 _atom_site_label
 _atom_site_symmetry_multiplicity
 _atom_site_fract_x
 _atom_site_fract_y
 _atom_site_fract_z
 _atom_site_occupancy
  Mo  Mo0  1  0.02466700  7.36050000  0.11590900  1
  Mo  Mo1  1  1.73163000  1.83693000  3.65890000  1
  Mo  Mo2  1  1.85918000  -0.06932590  1.77853000  1
  Mo  Mo3  1  7.26417000  1.84674000  1.83297000  1
  Mo  Mo4  1  3.59509000  -0.10770300  3.55364000  1
  Mo  Mo5  1  5.49212000  1.83841000  3.61332000  1
  Mo  Mo6  1  5.36936000  7.36463000  1.80664000  1
  Mo  Mo7  1  3.68209000  1.79828000  1.81717000  1
  Mo  Mo8  1  7.28139000  3.60678000  3.65483000  1
  Mo  Mo9  1  1.77151000  5.46465000  3.65459000  1
  Mo  Mo10  1  1.73392000  3.56698000  1.92191000  1
  Mo  Mo11  1  7.43559000  5.41994000  1.77936000  1
  Mo  Mo12  1  3.63505000  3.74384000  0.04308440  1
  Mo  Mo13  1  5.55837000  5.48568000  3.59212000  1
  Mo  Mo14  1  5.51737000  3.63151000  1.74946000  1
  Mo  Mo15  1  3.56027000  5.43616000  1.82735000  1
