# generated using pymatgen
data_Mo
_symmetry_space_group_name_H-M   'P 1'
_cell_length_a   7.28778040
_cell_length_b   7.28778040
_cell_length_c   3.64389014
_cell_angle_alpha   90.00000000
_cell_angle_beta   90.00000000
_cell_angle_gamma   90.00000000
_symmetry_Int_Tables_number   1
_chemical_formula_structural   Mo
_chemical_formula_sum   Mo16
_cell_volume   193.53335759
_cell_formula_units_Z   16
loop_
 _symmetry_equiv_pos_site_id
 _symmetry_equiv_pos_as_xyz
  1  'x, y, z'
loop_
 _atom_site_type_symbol
 _atom_site_label
 _atom_site_symmetry_multiplicity
 _atom_site_fract_x
 _atom_site_fract_y
 _atom_site_fract_z
 _atom_site_occupancy
  Mo  Mo0  1  -0.17428300  7.31223000  -0.01268950  1
  Mo  Mo1  1  1.84364000  1.85163000  3.60295000  1
  Mo  Mo2  1  1.82393000  0.04333670  1.84234000  1
  Mo  Mo3  1  7.31884000  1.83083000  1.77105000  1
  Mo  Mo4  1  3.70343000  0.01683610  3.64082000  1
  Mo  Mo5  1  5.42471000  1.79851000  3.62797000  1
  Mo  Mo6  1  5.46012000  7.21588000  1.91674000  1
  Mo  Mo7  1  3.61819000  1.86991000  1.83198000  1
  Mo  Mo8  1  7.26608000  3.58727000  3.59341000  1
  Mo  Mo9  1  1.79451000  5.45835000  3.55663000  1
  Mo  Mo10  1  1.83525000  3.65812000  1.81623000  1
  Mo  Mo11  1  7.28699000  5.44613000  1.83856000  1
  Mo  Mo12  1  3.65018000  3.59256000  0.02868430  1
  Mo  Mo13  1  5.57944000  5.41888000  3.70337000  1
  Mo  Mo14  1  5.41649000  3.78430000  1.88960000  1
  Mo  Mo15  1  3.66427000  5.33923000  1.75212000  1
