# generated using pymatgen
data_Mo
_symmetry_space_group_name_H-M   'P 1'
_cell_length_a   7.28778040
_cell_length_b   7.28778040
_cell_length_c   3.64389014
_cell_angle_alpha   90.00000000
_cell_angle_beta   90.00000000
_cell_angle_gamma   90.00000000
_symmetry_Int_Tables_number   1
_chemical_formula_structural   Mo
_chemical_formula_sum   Mo16
_cell_volume   193.53335759
_cell_formula_units_Z   16
loop_
 _symmetry_equiv_pos_site_id
 _symmetry_equiv_pos_as_xyz
  1  'x, y, z'
loop_
 _atom_site_type_symbol
 _atom_site_label
 _atom_site_symmetry_multiplicity
 _atom_site_fract_x
 _atom_site_fract_y
 _atom_site_fract_z
 _atom_site_occupancy
  Mo  Mo0  1  0.01262150  7.32703000  0.02025760  1
  Mo  Mo1  1  1.92260000  1.80283000  3.65479000  1
  Mo  Mo2  1  1.82512000  -0.04365880  1.88243000  1
  Mo  Mo3  1  7.28170000  1.87858000  1.91026000  1
  Mo  Mo4  1  3.55816000  -0.09213870  3.59271000  1
  Mo  Mo5  1  5.51824000  1.76051000  3.56915000  1
  Mo  Mo6  1  5.34780000  7.34340000  1.71067000  1
  Mo  Mo7  1  3.66758000  1.82432000  1.80516000  1
  Mo  Mo8  1  7.23052000  3.51331000  3.60930000  1
  Mo  Mo9  1  1.80899000  5.41966000  3.71235000  1
  Mo  Mo10  1  1.77845000  3.71833000  1.87706000  1
  Mo  Mo11  1  7.37438000  5.43389000  1.82495000  1
  Mo  Mo12  1  3.60525000  3.71678000  -0.02301380  1
  Mo  Mo13  1  5.41299000  5.46752000  3.67277000  1
  Mo  Mo14  1  5.55662000  3.62177000  1.82680000  1
  Mo  Mo15  1  3.61077000  5.53187000  1.75414000  1
