# generated using pymatgen
data_Mo
_symmetry_space_group_name_H-M   'P 1'
_cell_length_a   7.28778040
_cell_length_b   7.28778040
_cell_length_c   3.64389014
_cell_angle_alpha   90.00000000
_cell_angle_beta   90.00000000
_cell_angle_gamma   90.00000000
_symmetry_Int_Tables_number   1
_chemical_formula_structural   Mo
_chemical_formula_sum   Mo16
_cell_volume   193.53335759
_cell_formula_units_Z   16
loop_
 _symmetry_equiv_pos_site_id
 _symmetry_equiv_pos_as_xyz
  1  'x, y, z'
loop_
 _atom_site_type_symbol
 _atom_site_label
 _atom_site_symmetry_multiplicity
 _atom_site_fract_x
 _atom_site_fract_y
 _atom_site_fract_z
 _atom_site_occupancy
  Mo  Mo0  1  -0.09150500  7.28427000  0.02093960  1
  Mo  Mo1  1  1.65197000  1.90104000  3.76816000  1
  Mo  Mo2  1  1.81014000  -0.03864050  1.90326000  1
  Mo  Mo3  1  7.21402000  1.87013000  1.67707000  1
  Mo  Mo4  1  3.66240000  0.01369420  3.63756000  1
  Mo  Mo5  1  5.49222000  1.78842000  3.57969000  1
  Mo  Mo6  1  5.51318000  7.32825000  1.77596000  1
  Mo  Mo7  1  3.68081000  1.71889000  1.87953000  1
  Mo  Mo8  1  7.25774000  3.66837000  3.63649000  1
  Mo  Mo9  1  1.81206000  5.45682000  3.70838000  1
  Mo  Mo10  1  1.77519000  3.66968000  1.87510000  1
  Mo  Mo11  1  7.37611000  5.37189000  1.75827000  1
  Mo  Mo12  1  3.61310000  3.62566000  0.04736820  1
  Mo  Mo13  1  5.54656000  5.46118000  3.55935000  1
  Mo  Mo14  1  5.50048000  3.59220000  1.73500000  1
  Mo  Mo15  1  3.69731000  5.51214000  1.83766000  1
