# generated using pymatgen
data_Mo
_symmetry_space_group_name_H-M   'P 1'
_cell_length_a   7.28778040
_cell_length_b   7.28778040
_cell_length_c   3.64389014
_cell_angle_alpha   90.00000000
_cell_angle_beta   90.00000000
_cell_angle_gamma   90.00000000
_symmetry_Int_Tables_number   1
_chemical_formula_structural   Mo
_chemical_formula_sum   Mo16
_cell_volume   193.53335759
_cell_formula_units_Z   16
loop_
 _symmetry_equiv_pos_site_id
 _symmetry_equiv_pos_as_xyz
  1  'x, y, z'
loop_
 _atom_site_type_symbol
 _atom_site_label
 _atom_site_symmetry_multiplicity
 _atom_site_fract_x
 _atom_site_fract_y
 _atom_site_fract_z
 _atom_site_occupancy
  Mo  Mo0  1  -0.06631970  7.19293000  0.06993140  1
  Mo  Mo1  1  1.82304000  1.86864000  3.60695000  1
  Mo  Mo2  1  1.65026000  -0.00748322  1.86722000  1
  Mo  Mo3  1  7.23384000  1.78053000  1.86428000  1
  Mo  Mo4  1  3.67171000  0.05724900  3.65180000  1
  Mo  Mo5  1  5.47668000  1.80482000  3.59144000  1
  Mo  Mo6  1  5.45307000  7.28924000  1.68750000  1
  Mo  Mo7  1  3.64541000  1.79928000  1.84794000  1
  Mo  Mo8  1  7.21910000  3.74614000  3.74408000  1
  Mo  Mo9  1  1.85996000  5.47071000  3.67479000  1
  Mo  Mo10  1  1.92138000  3.55144000  1.86779000  1
  Mo  Mo11  1  7.26394000  5.47084000  1.76674000  1
  Mo  Mo12  1  3.75668000  3.57876000  -0.08085530  1
  Mo  Mo13  1  5.48360000  5.50320000  3.56182000  1
  Mo  Mo14  1  5.43511000  3.70424000  1.84418000  1
  Mo  Mo15  1  3.68431000  5.41347000  1.83416000  1
