# generated using pymatgen
data_Mo
_symmetry_space_group_name_H-M   'P 1'
_cell_length_a   7.28778040
_cell_length_b   7.28778040
_cell_length_c   3.64389014
_cell_angle_alpha   90.00000000
_cell_angle_beta   90.00000000
_cell_angle_gamma   90.00000000
_symmetry_Int_Tables_number   1
_chemical_formula_structural   Mo
_chemical_formula_sum   Mo16
_cell_volume   193.53335759
_cell_formula_units_Z   16
loop_
 _symmetry_equiv_pos_site_id
 _symmetry_equiv_pos_as_xyz
  1  'x, y, z'
loop_
 _atom_site_type_symbol
 _atom_site_label
 _atom_site_symmetry_multiplicity
 _atom_site_fract_x
 _atom_site_fract_y
 _atom_site_fract_z
 _atom_site_occupancy
  Mo  Mo0  1  -0.15479400  7.39643000  -0.01007600  1
  Mo  Mo1  1  1.79683000  1.76570000  3.48968000  1
  Mo  Mo2  1  1.82070000  -0.05035150  1.78500000  1
  Mo  Mo3  1  7.36038000  1.85187000  1.80315000  1
  Mo  Mo4  1  3.71820000  0.07688480  3.60014000  1
  Mo  Mo5  1  5.40006000  1.84124000  3.68261000  1
  Mo  Mo6  1  5.41183000  7.28774000  1.86909000  1
  Mo  Mo7  1  3.71717000  1.82778000  1.70685000  1
  Mo  Mo8  1  7.27695000  3.69362000  3.70726000  1
  Mo  Mo9  1  1.94891000  5.39605000  3.65186000  1
  Mo  Mo10  1  1.86283000  3.61616000  1.86919000  1
  Mo  Mo11  1  7.28082000  5.40322000  1.93893000  1
  Mo  Mo12  1  3.65483000  3.63369000  0.03390690  1
  Mo  Mo13  1  5.37994000  5.45053000  3.66564000  1
  Mo  Mo14  1  5.38337000  3.59253000  1.80308000  1
  Mo  Mo15  1  3.65374000  5.44091000  1.80349000  1
