# generated using pymatgen
data_Mo
_symmetry_space_group_name_H-M   'P 1'
_cell_length_a   7.28778040
_cell_length_b   7.28778040
_cell_length_c   3.64389014
_cell_angle_alpha   90.00000000
_cell_angle_beta   90.00000000
_cell_angle_gamma   90.00000000
_symmetry_Int_Tables_number   1
_chemical_formula_structural   Mo
_chemical_formula_sum   Mo16
_cell_volume   193.53335759
_cell_formula_units_Z   16
loop_
 _symmetry_equiv_pos_site_id
 _symmetry_equiv_pos_as_xyz
  1  'x, y, z'
loop_
 _atom_site_type_symbol
 _atom_site_label
 _atom_site_symmetry_multiplicity
 _atom_site_fract_x
 _atom_site_fract_y
 _atom_site_fract_z
 _atom_site_occupancy
  Mo  Mo0  1  -0.12204000  7.28645000  -0.00362312  1
  Mo  Mo1  1  1.78816000  1.74768000  3.54182000  1
  Mo  Mo2  1  1.84686000  -0.02074180  1.82986000  1
  Mo  Mo3  1  7.35278000  1.82079000  1.83091000  1
  Mo  Mo4  1  3.69093000  -0.00631254  3.63543000  1
  Mo  Mo5  1  5.55113000  1.92323000  3.67816000  1
  Mo  Mo6  1  5.45535000  7.28307000  1.88002000  1
  Mo  Mo7  1  3.68060000  1.90467000  1.71734000  1
  Mo  Mo8  1  7.32062000  3.53019000  3.65646000  1
  Mo  Mo9  1  1.78025000  5.58442000  3.63248000  1
  Mo  Mo10  1  1.75823000  3.72295000  1.83484000  1
  Mo  Mo11  1  7.32822000  5.40349000  1.78924000  1
  Mo  Mo12  1  3.61165000  3.70290000  0.03848950  1
  Mo  Mo13  1  5.47440000  5.26832000  3.66735000  1
  Mo  Mo14  1  5.45118000  3.69349000  1.88199000  1
  Mo  Mo15  1  3.54345000  5.37940000  1.78900000  1
