# generated using pymatgen
data_Mo
_symmetry_space_group_name_H-M   'P 1'
_cell_length_a   7.28778040
_cell_length_b   7.28778040
_cell_length_c   3.64389014
_cell_angle_alpha   90.00000000
_cell_angle_beta   90.00000000
_cell_angle_gamma   90.00000000
_symmetry_Int_Tables_number   1
_chemical_formula_structural   Mo
_chemical_formula_sum   Mo16
_cell_volume   193.53335759
_cell_formula_units_Z   16
loop_
 _symmetry_equiv_pos_site_id
 _symmetry_equiv_pos_as_xyz
  1  'x, y, z'
loop_
 _atom_site_type_symbol
 _atom_site_label
 _atom_site_symmetry_multiplicity
 _atom_site_fract_x
 _atom_site_fract_y
 _atom_site_fract_z
 _atom_site_occupancy
  Mo  Mo0  1  -0.03813890  7.36996000  0.00456388  1
  Mo  Mo1  1  1.83879000  1.82808000  3.64393000  1
  Mo  Mo2  1  1.89976000  -0.04563440  1.91124000  1
  Mo  Mo3  1  7.31916000  1.73746000  1.77321000  1
  Mo  Mo4  1  3.72851000  0.03261880  3.60069000  1
  Mo  Mo5  1  5.41606000  1.87264000  3.72555000  1
  Mo  Mo6  1  5.55090000  7.34909000  1.82437000  1
  Mo  Mo7  1  3.64106000  1.82663000  1.78580000  1
  Mo  Mo8  1  7.21405000  3.64547000  3.60915000  1
  Mo  Mo9  1  1.81087000  5.37688000  3.56442000  1
  Mo  Mo10  1  1.81156000  3.60939000  1.74623000  1
  Mo  Mo11  1  7.18498000  5.47037000  1.82644000  1
  Mo  Mo12  1  3.67981000  3.66241000  0.07804660  1
  Mo  Mo13  1  5.48440000  5.52752000  3.62364000  1
  Mo  Mo14  1  5.40335000  3.58138000  1.83318000  1
  Mo  Mo15  1  3.56666000  5.37973000  1.84933000  1
