# generated using pymatgen
data_Mo
_symmetry_space_group_name_H-M   'P 1'
_cell_length_a   7.27806742
_cell_length_b   7.27806742
_cell_length_c   3.63903379
_cell_angle_alpha   90.00000000
_cell_angle_beta   90.00000000
_cell_angle_gamma   90.00000000
_symmetry_Int_Tables_number   1
_chemical_formula_structural   Mo
_chemical_formula_sum   Mo16
_cell_volume   192.76058556
_cell_formula_units_Z   16
loop_
 _symmetry_equiv_pos_site_id
 _symmetry_equiv_pos_as_xyz
  1  'x, y, z'
loop_
 _atom_site_type_symbol
 _atom_site_label
 _atom_site_symmetry_multiplicity
 _atom_site_fract_x
 _atom_site_fract_y
 _atom_site_fract_z
 _atom_site_occupancy
  Mo  Mo0  1  -0.00818250  7.29739000  3.66371000  1
  Mo  Mo1  1  1.79453000  1.79093000  -0.00087349  1
  Mo  Mo2  1  1.80324000  7.27014000  1.83333000  1
  Mo  Mo3  1  7.26649000  1.82594000  1.79974000  1
  Mo  Mo4  1  3.61650000  7.28403000  -0.00327407  1
  Mo  Mo5  1  5.47992000  1.82722000  0.00842859  1
  Mo  Mo6  1  5.43962000  0.00874020  1.78957000  1
  Mo  Mo7  1  3.66141000  1.82088000  1.82893000  1
  Mo  Mo8  1  7.29767000  3.63220000  3.64591000  1
  Mo  Mo9  1  1.83842000  5.45674000  3.62611000  1
  Mo  Mo10  1  1.82341000  3.65465000  1.83779000  1
  Mo  Mo11  1  0.00362726  5.45040000  1.79648000  1
  Mo  Mo12  1  3.63662000  3.63158000  3.62189000  1
  Mo  Mo13  1  5.48646000  5.46162000  3.66401000  1
  Mo  Mo14  1  5.45024000  3.63557000  1.82703000  1
  Mo  Mo15  1  3.63402000  5.45403000  1.81225000  1
