# generated using pymatgen
data_Mo
_symmetry_space_group_name_H-M   'P 1'
_cell_length_a   7.28778040
_cell_length_b   7.28778040
_cell_length_c   3.64389014
_cell_angle_alpha   90.00000000
_cell_angle_beta   90.00000000
_cell_angle_gamma   90.00000000
_symmetry_Int_Tables_number   1
_chemical_formula_structural   Mo
_chemical_formula_sum   Mo16
_cell_volume   193.53335759
_cell_formula_units_Z   16
loop_
 _symmetry_equiv_pos_site_id
 _symmetry_equiv_pos_as_xyz
  1  'x, y, z'
loop_
 _atom_site_type_symbol
 _atom_site_label
 _atom_site_symmetry_multiplicity
 _atom_site_fract_x
 _atom_site_fract_y
 _atom_site_fract_z
 _atom_site_occupancy
  Mo  Mo0  1  -0.14326000  7.26291000  -0.02670670  1
  Mo  Mo1  1  1.86966000  1.76471000  3.58038000  1
  Mo  Mo2  1  1.91782000  -0.03862030  1.81786000  1
  Mo  Mo3  1  7.27263000  1.78401000  1.72907000  1
  Mo  Mo4  1  3.68949000  0.02381920  3.61756000  1
  Mo  Mo5  1  5.37028000  1.84657000  3.66559000  1
  Mo  Mo6  1  5.41066000  7.29814000  1.92562000  1
  Mo  Mo7  1  3.68675000  1.80633000  1.89268000  1
  Mo  Mo8  1  7.34914000  3.69886000  3.68798000  1
  Mo  Mo9  1  1.92839000  5.53948000  3.51874000  1
  Mo  Mo10  1  1.81509000  3.55938000  1.72695000  1
  Mo  Mo11  1  7.28292000  5.47711000  1.83067000  1
  Mo  Mo12  1  3.53588000  3.59968000  -0.02985730  1
  Mo  Mo13  1  5.38824000  5.47964000  3.71933000  1
  Mo  Mo14  1  5.45428000  3.66306000  1.88371000  1
  Mo  Mo15  1  3.68380000  5.45893000  1.86020000  1
