# generated using pymatgen
data_Mo
_symmetry_space_group_name_H-M   'P 1'
_cell_length_a   7.28778040
_cell_length_b   7.28778040
_cell_length_c   3.64389014
_cell_angle_alpha   90.00000000
_cell_angle_beta   90.00000000
_cell_angle_gamma   90.00000000
_symmetry_Int_Tables_number   1
_chemical_formula_structural   Mo
_chemical_formula_sum   Mo16
_cell_volume   193.53335759
_cell_formula_units_Z   16
loop_
 _symmetry_equiv_pos_site_id
 _symmetry_equiv_pos_as_xyz
  1  'x, y, z'
loop_
 _atom_site_type_symbol
 _atom_site_label
 _atom_site_symmetry_multiplicity
 _atom_site_fract_x
 _atom_site_fract_y
 _atom_site_fract_z
 _atom_site_occupancy
  Mo  Mo0  1  0.05927310  7.36072000  0.01162480  1
  Mo  Mo1  1  1.75465000  1.87700000  3.55748000  1
  Mo  Mo2  1  1.84130000  -0.08148270  1.75214000  1
  Mo  Mo3  1  7.16728000  1.87273000  1.75004000  1
  Mo  Mo4  1  3.61049000  0.00486170  3.62373000  1
  Mo  Mo5  1  5.53041000  1.82016000  3.68335000  1
  Mo  Mo6  1  5.52195000  7.31264000  1.91590000  1
  Mo  Mo7  1  3.77582000  1.73075000  1.83562000  1
  Mo  Mo8  1  7.27397000  3.59735000  3.63695000  1
  Mo  Mo9  1  1.85596000  5.40483000  3.58659000  1
  Mo  Mo10  1  1.80112000  3.60721000  1.81733000  1
  Mo  Mo11  1  7.18850000  5.36843000  1.84335000  1
  Mo  Mo12  1  3.68706000  3.65426000  0.01655660  1
  Mo  Mo13  1  5.43706000  5.53930000  3.63251000  1
  Mo  Mo14  1  5.48029000  3.65886000  1.85404000  1
  Mo  Mo15  1  3.52664000  5.49638000  1.88256000  1
