# generated using pymatgen
data_Mo
_symmetry_space_group_name_H-M   'P 1'
_cell_length_a   7.28778040
_cell_length_b   7.28778040
_cell_length_c   3.64389014
_cell_angle_alpha   90.00000000
_cell_angle_beta   90.00000000
_cell_angle_gamma   90.00000000
_symmetry_Int_Tables_number   1
_chemical_formula_structural   Mo
_chemical_formula_sum   Mo16
_cell_volume   193.53335759
_cell_formula_units_Z   16
loop_
 _symmetry_equiv_pos_site_id
 _symmetry_equiv_pos_as_xyz
  1  'x, y, z'
loop_
 _atom_site_type_symbol
 _atom_site_label
 _atom_site_symmetry_multiplicity
 _atom_site_fract_x
 _atom_site_fract_y
 _atom_site_fract_z
 _atom_site_occupancy
  Mo  Mo0  1  -0.05742510  7.17289000  -0.14015600  1
  Mo  Mo1  1  1.86387000  1.81627000  3.65760000  1
  Mo  Mo2  1  1.76882000  0.06255660  1.79664000  1
  Mo  Mo3  1  7.31725000  1.83556000  1.76657000  1
  Mo  Mo4  1  3.66768000  0.00216224  3.74356000  1
  Mo  Mo5  1  5.53565000  1.75595000  3.67103000  1
  Mo  Mo6  1  5.44980000  7.28248000  1.79783000  1
  Mo  Mo7  1  3.67607000  1.81034000  1.81500000  1
  Mo  Mo8  1  7.16866000  3.68901000  3.63078000  1
  Mo  Mo9  1  1.80467000  5.35122000  3.69584000  1
  Mo  Mo10  1  1.87864000  3.60798000  1.81463000  1
  Mo  Mo11  1  7.32999000  5.43739000  1.79092000  1
  Mo  Mo12  1  3.69388000  3.64267000  0.01967420  1
  Mo  Mo13  1  5.38278000  5.53357000  3.67060000  1
  Mo  Mo14  1  5.38080000  3.69197000  1.81816000  1
  Mo  Mo15  1  3.65062000  5.53196000  1.85110000  1
