# generated using pymatgen
data_Mo
_symmetry_space_group_name_H-M   'P 1'
_cell_length_a   7.28778040
_cell_length_b   7.28778040
_cell_length_c   3.64389014
_cell_angle_alpha   90.00000000
_cell_angle_beta   90.00000000
_cell_angle_gamma   90.00000000
_symmetry_Int_Tables_number   1
_chemical_formula_structural   Mo
_chemical_formula_sum   Mo16
_cell_volume   193.53335759
_cell_formula_units_Z   16
loop_
 _symmetry_equiv_pos_site_id
 _symmetry_equiv_pos_as_xyz
  1  'x, y, z'
loop_
 _atom_site_type_symbol
 _atom_site_label
 _atom_site_symmetry_multiplicity
 _atom_site_fract_x
 _atom_site_fract_y
 _atom_site_fract_z
 _atom_site_occupancy
  Mo  Mo0  1  0.03919650  7.27318000  0.01099660  1
  Mo  Mo1  1  1.86040000  1.89122000  3.66515000  1
  Mo  Mo2  1  1.77965000  0.03301260  1.87557000  1
  Mo  Mo3  1  7.38907000  1.71060000  1.78052000  1
  Mo  Mo4  1  3.52839000  0.02461600  3.62030000  1
  Mo  Mo5  1  5.50458000  1.64871000  3.59498000  1
  Mo  Mo6  1  5.51011000  7.20986000  1.77112000  1
  Mo  Mo7  1  3.64478000  1.83153000  1.79863000  1
  Mo  Mo8  1  7.29203000  3.52681000  3.61306000  1
  Mo  Mo9  1  1.78260000  5.43008000  3.75517000  1
  Mo  Mo10  1  1.85706000  3.65625000  1.88267000  1
  Mo  Mo11  1  7.24564000  5.55049000  1.83215000  1
  Mo  Mo12  1  3.64732000  3.58143000  0.11217700  1
  Mo  Mo13  1  5.45228000  5.59707000  3.56979000  1
  Mo  Mo14  1  5.35577000  3.77390000  1.79024000  1
  Mo  Mo15  1  3.62289000  5.48523000  1.72727000  1
