# generated using pymatgen
data_Mo
_symmetry_space_group_name_H-M   'P 1'
_cell_length_a   7.28778040
_cell_length_b   7.28778040
_cell_length_c   3.64389014
_cell_angle_alpha   90.00000000
_cell_angle_beta   90.00000000
_cell_angle_gamma   90.00000000
_symmetry_Int_Tables_number   1
_chemical_formula_structural   Mo
_chemical_formula_sum   Mo16
_cell_volume   193.53335759
_cell_formula_units_Z   16
loop_
 _symmetry_equiv_pos_site_id
 _symmetry_equiv_pos_as_xyz
  1  'x, y, z'
loop_
 _atom_site_type_symbol
 _atom_site_label
 _atom_site_symmetry_multiplicity
 _atom_site_fract_x
 _atom_site_fract_y
 _atom_site_fract_z
 _atom_site_occupancy
  Mo  Mo0  1  0.01427090  7.34313000  -0.11769800  1
  Mo  Mo1  1  1.81861000  1.82709000  3.66973000  1
  Mo  Mo2  1  1.87857000  -0.10918200  1.89918000  1
  Mo  Mo3  1  7.24809000  1.86059000  1.83397000  1
  Mo  Mo4  1  3.55056000  -0.04007500  3.71639000  1
  Mo  Mo5  1  5.42192000  1.74896000  3.59654000  1
  Mo  Mo6  1  5.39174000  7.32792000  1.80876000  1
  Mo  Mo7  1  3.70643000  1.75595000  1.77763000  1
  Mo  Mo8  1  7.15242000  3.53268000  3.64279000  1
  Mo  Mo9  1  1.81394000  5.45305000  3.68921000  1
  Mo  Mo10  1  1.76777000  3.74893000  1.89456000  1
  Mo  Mo11  1  7.36718000  5.43698000  1.73144000  1
  Mo  Mo12  1  3.79526000  3.61010000  0.02346830  1
  Mo  Mo13  1  5.52728000  5.53884000  3.58418000  1
  Mo  Mo14  1  5.44778000  3.70757000  1.81199000  1
  Mo  Mo15  1  3.60996000  5.48147000  1.83763000  1
