# generated using pymatgen
data_Mo
_symmetry_space_group_name_H-M   'P 1'
_cell_length_a   7.28778040
_cell_length_b   7.28778040
_cell_length_c   3.64389014
_cell_angle_alpha   90.00000000
_cell_angle_beta   90.00000000
_cell_angle_gamma   90.00000000
_symmetry_Int_Tables_number   1
_chemical_formula_structural   Mo
_chemical_formula_sum   Mo16
_cell_volume   193.53335759
_cell_formula_units_Z   16
loop_
 _symmetry_equiv_pos_site_id
 _symmetry_equiv_pos_as_xyz
  1  'x, y, z'
loop_
 _atom_site_type_symbol
 _atom_site_label
 _atom_site_symmetry_multiplicity
 _atom_site_fract_x
 _atom_site_fract_y
 _atom_site_fract_z
 _atom_site_occupancy
  Mo  Mo0  1  -0.11323300  7.23060000  0.01758870  1
  Mo  Mo1  1  1.81002000  1.78725000  3.63230000  1
  Mo  Mo2  1  1.76006000  0.05358570  1.79233000  1
  Mo  Mo3  1  7.31936000  1.86532000  1.84783000  1
  Mo  Mo4  1  3.75479000  0.07968190  3.65929000  1
  Mo  Mo5  1  5.56111000  1.89439000  3.65914000  1
  Mo  Mo6  1  5.49746000  7.19664000  1.75785000  1
  Mo  Mo7  1  3.60599000  1.89512000  1.83878000  1
  Mo  Mo8  1  7.27595000  3.74581000  3.65386000  1
  Mo  Mo9  1  1.81681000  5.51280000  3.60768000  1
  Mo  Mo10  1  1.92657000  3.54424000  1.78937000  1
  Mo  Mo11  1  7.22109000  5.42568000  1.79470000  1
  Mo  Mo12  1  3.59916000  3.62629000  -0.05497970  1
  Mo  Mo13  1  5.38590000  5.40955000  3.68450000  1
  Mo  Mo14  1  5.43765000  3.62061000  1.82839000  1
  Mo  Mo15  1  3.65309000  5.33640000  1.89114000  1
