# generated using pymatgen
data_Mo
_symmetry_space_group_name_H-M   'P 1'
_cell_length_a   7.28778040
_cell_length_b   7.28778040
_cell_length_c   3.64389014
_cell_angle_alpha   90.00000000
_cell_angle_beta   90.00000000
_cell_angle_gamma   90.00000000
_symmetry_Int_Tables_number   1
_chemical_formula_structural   Mo
_chemical_formula_sum   Mo16
_cell_volume   193.53335759
_cell_formula_units_Z   16
loop_
 _symmetry_equiv_pos_site_id
 _symmetry_equiv_pos_as_xyz
  1  'x, y, z'
loop_
 _atom_site_type_symbol
 _atom_site_label
 _atom_site_symmetry_multiplicity
 _atom_site_fract_x
 _atom_site_fract_y
 _atom_site_fract_z
 _atom_site_occupancy
  Mo  Mo0  1  0.07322510  7.22779000  -0.02713730  1
  Mo  Mo1  1  1.75024000  1.80128000  3.65392000  1
  Mo  Mo2  1  1.88004000  -0.04395720  1.80584000  1
  Mo  Mo3  1  7.24978000  1.87929000  1.86435000  1
  Mo  Mo4  1  3.54018000  0.03869590  3.69082000  1
  Mo  Mo5  1  5.46981000  1.86021000  3.63471000  1
  Mo  Mo6  1  5.41958000  7.30782000  1.90657000  1
  Mo  Mo7  1  3.66319000  1.72942000  1.67717000  1
  Mo  Mo8  1  7.31736000  3.61770000  3.69823000  1
  Mo  Mo9  1  1.89193000  5.48883000  3.59526000  1
  Mo  Mo10  1  1.72661000  3.70239000  1.75361000  1
  Mo  Mo11  1  7.40472000  5.43972000  1.78092000  1
  Mo  Mo12  1  3.61307000  3.51002000  -0.01653780  1
  Mo  Mo13  1  5.47155000  5.41386000  3.75165000  1
  Mo  Mo14  1  5.44632000  3.70315000  1.85350000  1
  Mo  Mo15  1  3.59416000  5.54780000  1.77690000  1
