# generated using pymatgen
data_Mo
_symmetry_space_group_name_H-M   'P 1'
_cell_length_a   7.28778040
_cell_length_b   7.28778040
_cell_length_c   3.64389014
_cell_angle_alpha   90.00000000
_cell_angle_beta   90.00000000
_cell_angle_gamma   90.00000000
_symmetry_Int_Tables_number   1
_chemical_formula_structural   Mo
_chemical_formula_sum   Mo16
_cell_volume   193.53335759
_cell_formula_units_Z   16
loop_
 _symmetry_equiv_pos_site_id
 _symmetry_equiv_pos_as_xyz
  1  'x, y, z'
loop_
 _atom_site_type_symbol
 _atom_site_label
 _atom_site_symmetry_multiplicity
 _atom_site_fract_x
 _atom_site_fract_y
 _atom_site_fract_z
 _atom_site_occupancy
  Mo  Mo0  1  -0.01524760  7.30414000  0.00462729  1
  Mo  Mo1  1  1.80416000  1.82340000  3.59332000  1
  Mo  Mo2  1  1.74369000  0.04313400  1.75901000  1
  Mo  Mo3  1  7.23873000  1.92827000  1.86271000  1
  Mo  Mo4  1  3.62941000  -0.04097400  3.61918000  1
  Mo  Mo5  1  5.58777000  1.80395000  3.72859000  1
  Mo  Mo6  1  5.48404000  7.34783000  1.83868000  1
  Mo  Mo7  1  3.68728000  1.81664000  1.81438000  1
  Mo  Mo8  1  7.14997000  3.59199000  3.54817000  1
  Mo  Mo9  1  1.77919000  5.37644000  3.58596000  1
  Mo  Mo10  1  1.77119000  3.60112000  1.75216000  1
  Mo  Mo11  1  7.41828000  5.43483000  1.78401000  1
  Mo  Mo12  1  3.67323000  3.61700000  0.06426930  1
  Mo  Mo13  1  5.45025000  5.46827000  3.74386000  1
  Mo  Mo14  1  5.50398000  3.59987000  1.88314000  1
  Mo  Mo15  1  3.60588000  5.50810000  1.81771000  1
