# generated using pymatgen
data_Mo
_symmetry_space_group_name_H-M   'P 1'
_cell_length_a   7.28778040
_cell_length_b   7.28778040
_cell_length_c   3.64389014
_cell_angle_alpha   90.00000000
_cell_angle_beta   90.00000000
_cell_angle_gamma   90.00000000
_symmetry_Int_Tables_number   1
_chemical_formula_structural   Mo
_chemical_formula_sum   Mo16
_cell_volume   193.53335759
_cell_formula_units_Z   16
loop_
 _symmetry_equiv_pos_site_id
 _symmetry_equiv_pos_as_xyz
  1  'x, y, z'
loop_
 _atom_site_type_symbol
 _atom_site_label
 _atom_site_symmetry_multiplicity
 _atom_site_fract_x
 _atom_site_fract_y
 _atom_site_fract_z
 _atom_site_occupancy
  Mo  Mo0  1  -0.10320500  7.23051000  0.03658130  1
  Mo  Mo1  1  1.73074000  1.85201000  3.56635000  1
  Mo  Mo2  1  1.73727000  0.02967190  1.84238000  1
  Mo  Mo3  1  7.29444000  1.80554000  1.80212000  1
  Mo  Mo4  1  3.68967000  0.03562310  3.63051000  1
  Mo  Mo5  1  5.51512000  1.91281000  3.70925000  1
  Mo  Mo6  1  5.53648000  7.29287000  1.94147000  1
  Mo  Mo7  1  3.65719000  1.86091000  1.81609000  1
  Mo  Mo8  1  7.43569000  3.64308000  3.61168000  1
  Mo  Mo9  1  1.92057000  5.42099000  3.62716000  1
  Mo  Mo10  1  1.83014000  3.63514000  1.73256000  1
  Mo  Mo11  1  7.25011000  5.51228000  1.88168000  1
  Mo  Mo12  1  3.53482000  3.50253000  0.03974850  1
  Mo  Mo13  1  5.41140000  5.34598000  3.62020000  1
  Mo  Mo14  1  5.40260000  3.70717000  1.84223000  1
  Mo  Mo15  1  3.66876000  5.43690000  1.69979000  1
