# generated using pymatgen
data_Mo
_symmetry_space_group_name_H-M   'P 1'
_cell_length_a   7.27806742
_cell_length_b   7.27806742
_cell_length_c   3.63903379
_cell_angle_alpha   90.00000000
_cell_angle_beta   90.00000000
_cell_angle_gamma   90.00000000
_symmetry_Int_Tables_number   1
_chemical_formula_structural   Mo
_chemical_formula_sum   Mo16
_cell_volume   192.76058556
_cell_formula_units_Z   16
loop_
 _symmetry_equiv_pos_site_id
 _symmetry_equiv_pos_as_xyz
  1  'x, y, z'
loop_
 _atom_site_type_symbol
 _atom_site_label
 _atom_site_symmetry_multiplicity
 _atom_site_fract_x
 _atom_site_fract_y
 _atom_site_fract_z
 _atom_site_occupancy
  Mo  Mo0  1  0.01822060  7.28093000  3.61931000  1
  Mo  Mo1  1  1.82084000  1.83389000  -0.00575667  1
  Mo  Mo2  1  1.85826000  7.27676000  1.81288000  1
  Mo  Mo3  1  7.27688000  1.82344000  1.82456000  1
  Mo  Mo4  1  3.63981000  7.28883000  0.00433594  1
  Mo  Mo5  1  5.45537000  1.79292000  -0.00690159  1
  Mo  Mo6  1  5.46244000  -0.00432324  1.83753000  1
  Mo  Mo7  1  3.63983000  1.82482000  1.79299000  1
  Mo  Mo8  1  7.28117000  3.62463000  3.65207000  1
  Mo  Mo9  1  1.78409000  5.45935000  3.67039000  1
  Mo  Mo10  1  1.82187000  3.64221000  1.81754000  1
  Mo  Mo11  1  -0.02841370  5.44819000  1.85083000  1
  Mo  Mo12  1  3.61878000  3.63417000  3.67122000  1
  Mo  Mo13  1  5.45887000  5.45860000  3.60361000  1
  Mo  Mo14  1  5.45220000  3.66670000  1.80181000  1
  Mo  Mo15  1  3.66378000  5.45095000  1.80462000  1
