# generated using pymatgen
data_Mo
_symmetry_space_group_name_H-M   'P 1'
_cell_length_a   7.28778040
_cell_length_b   7.28778040
_cell_length_c   3.64389014
_cell_angle_alpha   90.00000000
_cell_angle_beta   90.00000000
_cell_angle_gamma   90.00000000
_symmetry_Int_Tables_number   1
_chemical_formula_structural   Mo
_chemical_formula_sum   Mo16
_cell_volume   193.53335759
_cell_formula_units_Z   16
loop_
 _symmetry_equiv_pos_site_id
 _symmetry_equiv_pos_as_xyz
  1  'x, y, z'
loop_
 _atom_site_type_symbol
 _atom_site_label
 _atom_site_symmetry_multiplicity
 _atom_site_fract_x
 _atom_site_fract_y
 _atom_site_fract_z
 _atom_site_occupancy
  Mo  Mo0  1  -0.08033120  7.17190000  0.00153739  1
  Mo  Mo1  1  1.91600000  1.68236000  3.60723000  1
  Mo  Mo2  1  1.80341000  0.04593840  1.70025000  1
  Mo  Mo3  1  7.31761000  1.74212000  1.80674000  1
  Mo  Mo4  1  3.77468000  0.08901940  3.62949000  1
  Mo  Mo5  1  5.49422000  1.85135000  3.70961000  1
  Mo  Mo6  1  5.44560000  7.24589000  1.86368000  1
  Mo  Mo7  1  3.61586000  1.83542000  1.83034000  1
  Mo  Mo8  1  7.32732000  3.67822000  3.51950000  1
  Mo  Mo9  1  1.81984000  5.50200000  3.63943000  1
  Mo  Mo10  1  1.91851000  3.60935000  1.83155000  1
  Mo  Mo11  1  7.15255000  5.56110000  1.83499000  1
  Mo  Mo12  1  3.63377000  3.57034000  0.10776200  1
  Mo  Mo13  1  5.36689000  5.45550000  3.67226000  1
  Mo  Mo14  1  5.38261000  3.69695000  1.84279000  1
  Mo  Mo15  1  3.62322000  5.48655000  1.80261000  1
