# generated using pymatgen
data_Mo
_symmetry_space_group_name_H-M   'P 1'
_cell_length_a   7.28778040
_cell_length_b   7.28778040
_cell_length_c   3.64389014
_cell_angle_alpha   90.00000000
_cell_angle_beta   90.00000000
_cell_angle_gamma   90.00000000
_symmetry_Int_Tables_number   1
_chemical_formula_structural   Mo
_chemical_formula_sum   Mo16
_cell_volume   193.53335759
_cell_formula_units_Z   16
loop_
 _symmetry_equiv_pos_site_id
 _symmetry_equiv_pos_as_xyz
  1  'x, y, z'
loop_
 _atom_site_type_symbol
 _atom_site_label
 _atom_site_symmetry_multiplicity
 _atom_site_fract_x
 _atom_site_fract_y
 _atom_site_fract_z
 _atom_site_occupancy
  Mo  Mo0  1  0.06283050  7.22639000  0.04784080  1
  Mo  Mo1  1  1.79510000  1.87746000  3.49057000  1
  Mo  Mo2  1  1.65269000  -0.09557550  1.76217000  1
  Mo  Mo3  1  7.28979000  1.88117000  1.79674000  1
  Mo  Mo4  1  3.63346000  0.08892550  3.74741000  1
  Mo  Mo5  1  5.53270000  1.86933000  3.64558000  1
  Mo  Mo6  1  5.52187000  7.35181000  1.80422000  1
  Mo  Mo7  1  3.58160000  1.79948000  1.86759000  1
  Mo  Mo8  1  7.28346000  3.62950000  3.66999000  1
  Mo  Mo9  1  1.84138000  5.48980000  3.62620000  1
  Mo  Mo10  1  1.87397000  3.62444000  1.77157000  1
  Mo  Mo11  1  7.30321000  5.37062000  1.79133000  1
  Mo  Mo12  1  3.65554000  3.59061000  -0.06729090  1
  Mo  Mo13  1  5.45868000  5.45812000  3.69854000  1
  Mo  Mo14  1  5.45797000  3.56862000  1.87576000  1
  Mo  Mo15  1  3.56751000  5.49330000  1.87156000  1
