# generated using pymatgen
data_Mo
_symmetry_space_group_name_H-M   'P 1'
_cell_length_a   7.28778040
_cell_length_b   7.28778040
_cell_length_c   3.64389014
_cell_angle_alpha   90.00000000
_cell_angle_beta   90.00000000
_cell_angle_gamma   90.00000000
_symmetry_Int_Tables_number   1
_chemical_formula_structural   Mo
_chemical_formula_sum   Mo16
_cell_volume   193.53335759
_cell_formula_units_Z   16
loop_
 _symmetry_equiv_pos_site_id
 _symmetry_equiv_pos_as_xyz
  1  'x, y, z'
loop_
 _atom_site_type_symbol
 _atom_site_label
 _atom_site_symmetry_multiplicity
 _atom_site_fract_x
 _atom_site_fract_y
 _atom_site_fract_z
 _atom_site_occupancy
  Mo  Mo0  1  0.01904660  7.18891000  0.03343210  1
  Mo  Mo1  1  2.00206000  1.80692000  3.63492000  1
  Mo  Mo2  1  1.80691000  -0.00971265  1.75965000  1
  Mo  Mo3  1  7.27625000  1.78567000  1.88133000  1
  Mo  Mo4  1  3.65985000  0.02400290  3.69907000  1
  Mo  Mo5  1  5.39651000  1.79560000  3.55934000  1
  Mo  Mo6  1  5.42852000  7.33989000  1.82536000  1
  Mo  Mo7  1  3.62372000  1.95216000  1.83724000  1
  Mo  Mo8  1  7.24789000  3.57751000  3.63864000  1
  Mo  Mo9  1  1.77150000  5.43612000  3.66230000  1
  Mo  Mo10  1  1.85296000  3.60475000  1.77602000  1
  Mo  Mo11  1  7.23549000  5.51201000  1.79633000  1
  Mo  Mo12  1  3.57729000  3.61063000  -0.08367900  1
  Mo  Mo13  1  5.44611000  5.44728000  3.71253000  1
  Mo  Mo14  1  5.39790000  3.67957000  1.86743000  1
  Mo  Mo15  1  3.76977000  5.47269000  1.79987000  1
