# generated using pymatgen
data_Mo
_symmetry_space_group_name_H-M   'P 1'
_cell_length_a   7.28778040
_cell_length_b   7.28778040
_cell_length_c   3.64389014
_cell_angle_alpha   90.00000000
_cell_angle_beta   90.00000000
_cell_angle_gamma   90.00000000
_symmetry_Int_Tables_number   1
_chemical_formula_structural   Mo
_chemical_formula_sum   Mo16
_cell_volume   193.53335759
_cell_formula_units_Z   16
loop_
 _symmetry_equiv_pos_site_id
 _symmetry_equiv_pos_as_xyz
  1  'x, y, z'
loop_
 _atom_site_type_symbol
 _atom_site_label
 _atom_site_symmetry_multiplicity
 _atom_site_fract_x
 _atom_site_fract_y
 _atom_site_fract_z
 _atom_site_occupancy
  Mo  Mo0  1  0.07957300  7.33332000  0.01418950  1
  Mo  Mo1  1  1.86789000  1.86511000  3.63430000  1
  Mo  Mo2  1  1.78897000  -0.04148950  1.80930000  1
  Mo  Mo3  1  7.34567000  1.89432000  1.86794000  1
  Mo  Mo4  1  3.58160000  -0.04395300  3.58949000  1
  Mo  Mo5  1  5.41406000  1.65633000  3.68587000  1
  Mo  Mo6  1  5.41000000  7.37359000  1.90246000  1
  Mo  Mo7  1  3.59667000  1.77798000  1.72773000  1
  Mo  Mo8  1  7.30106000  3.55677000  3.70368000  1
  Mo  Mo9  1  1.74785000  5.44931000  3.62079000  1
  Mo  Mo10  1  1.80648000  3.75633000  1.69653000  1
  Mo  Mo11  1  7.32249000  5.34814000  1.83014000  1
  Mo  Mo12  1  3.69770000  3.63060000  0.00264688  1
  Mo  Mo13  1  5.52117000  5.52851000  3.69418000  1
  Mo  Mo14  1  5.53811000  3.56936000  1.90602000  1
  Mo  Mo15  1  3.49249000  5.56977000  1.71450000  1
