# generated using pymatgen
data_Mo
_symmetry_space_group_name_H-M   'P 1'
_cell_length_a   7.28778040
_cell_length_b   7.28778040
_cell_length_c   3.64389014
_cell_angle_alpha   90.00000000
_cell_angle_beta   90.00000000
_cell_angle_gamma   90.00000000
_symmetry_Int_Tables_number   1
_chemical_formula_structural   Mo
_chemical_formula_sum   Mo16
_cell_volume   193.53335759
_cell_formula_units_Z   16
loop_
 _symmetry_equiv_pos_site_id
 _symmetry_equiv_pos_as_xyz
  1  'x, y, z'
loop_
 _atom_site_type_symbol
 _atom_site_label
 _atom_site_symmetry_multiplicity
 _atom_site_fract_x
 _atom_site_fract_y
 _atom_site_fract_z
 _atom_site_occupancy
  Mo  Mo0  1  -0.01962230  7.31683000  0.03800910  1
  Mo  Mo1  1  1.78753000  1.74356000  3.59037000  1
  Mo  Mo2  1  1.81423000  -0.05080060  1.83119000  1
  Mo  Mo3  1  7.29587000  1.79037000  1.76857000  1
  Mo  Mo4  1  3.60711000  0.00277110  3.61585000  1
  Mo  Mo5  1  5.46871000  2.00569000  3.65122000  1
  Mo  Mo6  1  5.47281000  7.29694000  1.69596000  1
  Mo  Mo7  1  3.61429000  1.86718000  1.90066000  1
  Mo  Mo8  1  7.32035000  3.60519000  3.53740000  1
  Mo  Mo9  1  1.73043000  5.43854000  3.66376000  1
  Mo  Mo10  1  1.79362000  3.58926000  1.89152000  1
  Mo  Mo11  1  7.25728000  5.45875000  1.86550000  1
  Mo  Mo12  1  3.62258000  3.73051000  0.04253470  1
  Mo  Mo13  1  5.52951000  5.38801000  3.60949000  1
  Mo  Mo14  1  5.45076000  3.63193000  1.83117000  1
  Mo  Mo15  1  3.76632000  5.40928000  1.86658000  1
