# generated using pymatgen
data_Mo
_symmetry_space_group_name_H-M   'P 1'
_cell_length_a   7.28778040
_cell_length_b   7.28778040
_cell_length_c   3.64389014
_cell_angle_alpha   90.00000000
_cell_angle_beta   90.00000000
_cell_angle_gamma   90.00000000
_symmetry_Int_Tables_number   1
_chemical_formula_structural   Mo
_chemical_formula_sum   Mo16
_cell_volume   193.53335759
_cell_formula_units_Z   16
loop_
 _symmetry_equiv_pos_site_id
 _symmetry_equiv_pos_as_xyz
  1  'x, y, z'
loop_
 _atom_site_type_symbol
 _atom_site_label
 _atom_site_symmetry_multiplicity
 _atom_site_fract_x
 _atom_site_fract_y
 _atom_site_fract_z
 _atom_site_occupancy
  Mo  Mo0  1  -0.00720942  7.26821000  -0.07278670  1
  Mo  Mo1  1  1.80494000  1.93762000  3.58553000  1
  Mo  Mo2  1  1.90294000  -0.05353670  1.86938000  1
  Mo  Mo3  1  7.24501000  1.77999000  1.74053000  1
  Mo  Mo4  1  3.54624000  0.01831540  3.75932000  1
  Mo  Mo5  1  5.46073000  1.71809000  3.68051000  1
  Mo  Mo6  1  5.36316000  7.36464000  1.84798000  1
  Mo  Mo7  1  3.76021000  1.74373000  1.86116000  1
  Mo  Mo8  1  7.25874000  3.55376000  3.66106000  1
  Mo  Mo9  1  1.78369000  5.38728000  3.56798000  1
  Mo  Mo10  1  1.76727000  3.65765000  1.81744000  1
  Mo  Mo11  1  7.31060000  5.43039000  1.74332000  1
  Mo  Mo12  1  3.72474000  3.63772000  -0.02720410  1
  Mo  Mo13  1  5.49423000  5.59702000  3.66000000  1
  Mo  Mo14  1  5.45118000  3.63187000  1.89343000  1
  Mo  Mo15  1  3.64531000  5.55123000  1.81213000  1
