# generated using pymatgen
data_Mo
_symmetry_space_group_name_H-M   'P 1'
_cell_length_a   7.28778040
_cell_length_b   7.28778040
_cell_length_c   3.64389014
_cell_angle_alpha   90.00000000
_cell_angle_beta   90.00000000
_cell_angle_gamma   90.00000000
_symmetry_Int_Tables_number   1
_chemical_formula_structural   Mo
_chemical_formula_sum   Mo16
_cell_volume   193.53335759
_cell_formula_units_Z   16
loop_
 _symmetry_equiv_pos_site_id
 _symmetry_equiv_pos_as_xyz
  1  'x, y, z'
loop_
 _atom_site_type_symbol
 _atom_site_label
 _atom_site_symmetry_multiplicity
 _atom_site_fract_x
 _atom_site_fract_y
 _atom_site_fract_z
 _atom_site_occupancy
  Mo  Mo0  1  -0.06555520  7.38044000  -0.02664720  1
  Mo  Mo1  1  1.76102000  1.75552000  3.72155000  1
  Mo  Mo2  1  1.88378000  0.00227949  1.94168000  1
  Mo  Mo3  1  7.34046000  1.87094000  1.83248000  1
  Mo  Mo4  1  3.66481000  0.04901160  3.65928000  1
  Mo  Mo5  1  5.44294000  1.87663000  3.63789000  1
  Mo  Mo6  1  5.41276000  7.24368000  1.76724000  1
  Mo  Mo7  1  3.72701000  1.77581000  1.79223000  1
  Mo  Mo8  1  7.22636000  3.72334000  3.65082000  1
  Mo  Mo9  1  1.93259000  5.44796000  3.55599000  1
  Mo  Mo10  1  1.81679000  3.61691000  1.81232000  1
  Mo  Mo11  1  7.27932000  5.38993000  1.79343000  1
  Mo  Mo12  1  3.68225000  3.61171000  0.06115380  1
  Mo  Mo13  1  5.37555000  5.42198000  3.63943000  1
  Mo  Mo14  1  5.41984000  3.59878000  1.78608000  1
  Mo  Mo15  1  3.61186000  5.45909000  1.77485000  1
