# generated using pymatgen
data_Mo
_symmetry_space_group_name_H-M   'P 1'
_cell_length_a   7.27808089
_cell_length_b   7.27808089
_cell_length_c   3.63904047
_cell_angle_alpha   90.00000000
_cell_angle_beta   90.00000000
_cell_angle_gamma   90.00000000
_symmetry_Int_Tables_number   1
_chemical_formula_structural   Mo
_chemical_formula_sum   Mo16
_cell_volume   192.76165285
_cell_formula_units_Z   16
loop_
 _symmetry_equiv_pos_site_id
 _symmetry_equiv_pos_as_xyz
  1  'x, y, z'
loop_
 _atom_site_type_symbol
 _atom_site_label
 _atom_site_symmetry_multiplicity
 _atom_site_fract_x
 _atom_site_fract_y
 _atom_site_fract_z
 _atom_site_occupancy
  Mo  Mo0  1  -0.00763698  7.28571000  0.00606132  1
  Mo  Mo1  1  1.82253000  1.80955000  0.00817617  1
  Mo  Mo2  1  1.82748000  7.27415000  1.82769000  1
  Mo  Mo3  1  7.26879000  1.82646000  1.82635000  1
  Mo  Mo4  1  3.63443000  7.29523000  3.62118000  1
  Mo  Mo5  1  5.46426000  1.81212000  0.01633380  1
  Mo  Mo6  1  5.47001000  0.00125384  1.82601000  1
  Mo  Mo7  1  3.64503000  1.82002000  1.81699000  1
  Mo  Mo8  1  7.28946000  3.63680000  3.64505000  1
  Mo  Mo9  1  1.80850000  5.45310000  3.63376000  1
  Mo  Mo10  1  1.81327000  3.64131000  1.81550000  1
  Mo  Mo11  1  7.26768000  5.47006000  1.81660000  1
  Mo  Mo12  1  3.65473000  3.63238000  0.00239053  1
  Mo  Mo13  1  5.45171000  5.44673000  3.62991000  1
  Mo  Mo14  1  5.45579000  3.63335000  1.80854000  1
  Mo  Mo15  1  3.63606000  5.46385000  1.81146000  1
