# generated using pymatgen
data_Mo
_symmetry_space_group_name_H-M   'P 1'
_cell_length_a   7.27806742
_cell_length_b   7.27806742
_cell_length_c   3.63903379
_cell_angle_alpha   90.00000000
_cell_angle_beta   90.00000000
_cell_angle_gamma   90.00000000
_symmetry_Int_Tables_number   1
_chemical_formula_structural   Mo
_chemical_formula_sum   Mo16
_cell_volume   192.76058556
_cell_formula_units_Z   16
loop_
 _symmetry_equiv_pos_site_id
 _symmetry_equiv_pos_as_xyz
  1  'x, y, z'
loop_
 _atom_site_type_symbol
 _atom_site_label
 _atom_site_symmetry_multiplicity
 _atom_site_fract_x
 _atom_site_fract_y
 _atom_site_fract_z
 _atom_site_occupancy
  Mo  Mo0  1  -0.00022258  7.30710000  3.65996000  1
  Mo  Mo1  1  1.82276000  1.81057000  0.00557004  1
  Mo  Mo2  1  1.80358000  7.25360000  1.82958000  1
  Mo  Mo3  1  7.26758000  1.82041000  1.80997000  1
  Mo  Mo4  1  3.61730000  7.27583000  -0.01011710  1
  Mo  Mo5  1  5.44878000  1.82272000  0.01001300  1
  Mo  Mo6  1  5.43721000  -0.00449916  1.79282000  1
  Mo  Mo7  1  3.65470000  1.82471000  1.83355000  1
  Mo  Mo8  1  7.27744000  3.62925000  3.63322000  1
  Mo  Mo9  1  1.85030000  5.44966000  3.61818000  1
  Mo  Mo10  1  1.81760000  3.66369000  1.81870000  1
  Mo  Mo11  1  0.00434848  5.45949000  1.79729000  1
  Mo  Mo12  1  3.66026000  3.64285000  3.61917000  1
  Mo  Mo13  1  5.47177000  5.46533000  3.67356000  1
  Mo  Mo14  1  5.45677000  3.63801000  1.83390000  1
  Mo  Mo15  1  3.63383000  5.44335000  1.82566000  1
