# generated using pymatgen
data_Mo
_symmetry_space_group_name_H-M   'P 1'
_cell_length_a   7.28968789
_cell_length_b   7.28968789
_cell_length_c   3.64484406
_cell_angle_alpha   90.00000000
_cell_angle_beta   90.00000000
_cell_angle_gamma   90.00000000
_symmetry_Int_Tables_number   1
_chemical_formula_structural   Mo
_chemical_formula_sum   Mo16
_cell_volume   193.68537117
_cell_formula_units_Z   16
loop_
 _symmetry_equiv_pos_site_id
 _symmetry_equiv_pos_as_xyz
  1  'x, y, z'
loop_
 _atom_site_type_symbol
 _atom_site_label
 _atom_site_symmetry_multiplicity
 _atom_site_fract_x
 _atom_site_fract_y
 _atom_site_fract_z
 _atom_site_occupancy
  Mo  Mo0  1  0.02059210  7.38110000  3.59626000  1
  Mo  Mo1  1  1.74453000  1.68642000  3.78704000  1
  Mo  Mo2  1  1.81815000  -0.07327650  1.75908000  1
  Mo  Mo3  1  -0.04001130  1.80016000  1.88750000  1
  Mo  Mo4  1  3.55581000  7.29805000  -0.04166170  1
  Mo  Mo5  1  5.48622000  1.94963000  0.08905340  1
  Mo  Mo6  1  5.57024000  -0.02653290  1.85206000  1
  Mo  Mo7  1  3.65070000  1.84845000  1.84631000  1
  Mo  Mo8  1  7.34113000  3.56782000  3.67491000  1
  Mo  Mo9  1  1.82494000  5.42604000  -0.08704530  1
  Mo  Mo10  1  1.81691000  3.59555000  1.78316000  1
  Mo  Mo11  1  0.10213600  5.52081000  1.71746000  1
  Mo  Mo12  1  3.54100000  3.64826000  3.77103000  1
  Mo  Mo13  1  5.51209000  5.42743000  3.55365000  1
  Mo  Mo14  1  5.39117000  3.71072000  1.74353000  1
  Mo  Mo15  1  3.59872000  5.46337000  1.82450000  1
