# generated using pymatgen
data_Mo
_symmetry_space_group_name_H-M   'P 1'
_cell_length_a   7.28968789
_cell_length_b   7.28968789
_cell_length_c   3.64484406
_cell_angle_alpha   90.00000000
_cell_angle_beta   90.00000000
_cell_angle_gamma   90.00000000
_symmetry_Int_Tables_number   1
_chemical_formula_structural   Mo
_chemical_formula_sum   Mo16
_cell_volume   193.68537117
_cell_formula_units_Z   16
loop_
 _symmetry_equiv_pos_site_id
 _symmetry_equiv_pos_as_xyz
  1  'x, y, z'
loop_
 _atom_site_type_symbol
 _atom_site_label
 _atom_site_symmetry_multiplicity
 _atom_site_fract_x
 _atom_site_fract_y
 _atom_site_fract_z
 _atom_site_occupancy
  Mo  Mo0  1  0.01856530  7.24728000  3.58658000  1
  Mo  Mo1  1  1.79911000  1.71007000  3.55783000  1
  Mo  Mo2  1  1.83748000  -0.01535040  1.82930000  1
  Mo  Mo3  1  0.02955050  1.74327000  1.70649000  1
  Mo  Mo4  1  3.69885000  7.33012000  -0.02723820  1
  Mo  Mo5  1  5.53609000  1.86456000  -0.07611430  1
  Mo  Mo6  1  5.48060000  0.06364080  1.84994000  1
  Mo  Mo7  1  3.52504000  1.83504000  1.79999000  1
  Mo  Mo8  1  7.21671000  3.58472000  3.63932000  1
  Mo  Mo9  1  1.75753000  5.45096000  0.16987200  1
  Mo  Mo10  1  1.82091000  3.65056000  1.89759000  1
  Mo  Mo11  1  -0.12862200  5.43045000  1.91731000  1
  Mo  Mo12  1  3.70731000  3.60491000  3.60334000  1
  Mo  Mo13  1  5.51799000  5.56098000  3.71248000  1
  Mo  Mo14  1  5.48286000  3.64392000  1.77632000  1
  Mo  Mo15  1  3.63433000  5.51889000  1.81386000  1
