# generated using pymatgen
data_Mo
_symmetry_space_group_name_H-M   'P 1'
_cell_length_a   7.28968789
_cell_length_b   7.28968789
_cell_length_c   3.64484406
_cell_angle_alpha   90.00000000
_cell_angle_beta   90.00000000
_cell_angle_gamma   90.00000000
_symmetry_Int_Tables_number   1
_chemical_formula_structural   Mo
_chemical_formula_sum   Mo16
_cell_volume   193.68537117
_cell_formula_units_Z   16
loop_
 _symmetry_equiv_pos_site_id
 _symmetry_equiv_pos_as_xyz
  1  'x, y, z'
loop_
 _atom_site_type_symbol
 _atom_site_label
 _atom_site_symmetry_multiplicity
 _atom_site_fract_x
 _atom_site_fract_y
 _atom_site_fract_z
 _atom_site_occupancy
  Mo  Mo0  1  -0.01834440  7.35343000  3.74802000  1
  Mo  Mo1  1  1.74886000  1.86967000  3.63804000  1
  Mo  Mo2  1  1.84454000  -0.14485600  1.79784000  1
  Mo  Mo3  1  -0.12032500  1.81322000  1.85948000  1
  Mo  Mo4  1  3.59855000  7.25390000  0.01642930  1
  Mo  Mo5  1  5.38015000  1.75843000  -0.03170760  1
  Mo  Mo6  1  5.51870000  -0.06273850  1.81740000  1
  Mo  Mo7  1  3.63658000  1.80192000  1.76497000  1
  Mo  Mo8  1  7.31681000  3.56335000  3.69173000  1
  Mo  Mo9  1  1.74547000  5.41382000  -0.05130460  1
  Mo  Mo10  1  1.85386000  3.69733000  1.82641000  1
  Mo  Mo11  1  0.06529200  5.52357000  1.74476000  1
  Mo  Mo12  1  3.71032000  3.67632000  3.67846000  1
  Mo  Mo13  1  5.50623000  5.57228000  3.59246000  1
  Mo  Mo14  1  5.45223000  3.69572000  1.78278000  1
  Mo  Mo15  1  3.69538000  5.43864000  1.88107000  1
