# generated using pymatgen
data_Mo
_symmetry_space_group_name_H-M   'P 1'
_cell_length_a   7.28968789
_cell_length_b   7.28968789
_cell_length_c   3.64484406
_cell_angle_alpha   90.00000000
_cell_angle_beta   90.00000000
_cell_angle_gamma   90.00000000
_symmetry_Int_Tables_number   1
_chemical_formula_structural   Mo
_chemical_formula_sum   Mo16
_cell_volume   193.68537117
_cell_formula_units_Z   16
loop_
 _symmetry_equiv_pos_site_id
 _symmetry_equiv_pos_as_xyz
  1  'x, y, z'
loop_
 _atom_site_type_symbol
 _atom_site_label
 _atom_site_symmetry_multiplicity
 _atom_site_fract_x
 _atom_site_fract_y
 _atom_site_fract_z
 _atom_site_occupancy
  Mo  Mo0  1  -0.06339760  7.29889000  3.56967000  1
  Mo  Mo1  1  1.94846000  1.81310000  3.64947000  1
  Mo  Mo2  1  1.68584000  0.01085570  1.73297000  1
  Mo  Mo3  1  0.03239400  1.82503000  1.86859000  1
  Mo  Mo4  1  3.63529000  7.13029000  -0.04427200  1
  Mo  Mo5  1  5.50313000  1.78382000  0.11935800  1
  Mo  Mo6  1  5.39536000  0.02795980  1.87528000  1
  Mo  Mo7  1  3.74246000  1.81865000  1.81258000  1
  Mo  Mo8  1  7.15416000  3.70376000  3.63703000  1
  Mo  Mo9  1  1.80060000  5.36057000  -0.01108660  1
  Mo  Mo10  1  1.84408000  3.57179000  1.83496000  1
  Mo  Mo11  1  -0.06884670  5.50650000  1.84854000  1
  Mo  Mo12  1  3.71733000  3.67773000  3.57610000  1
  Mo  Mo13  1  5.51366000  5.56174000  3.69745000  1
  Mo  Mo14  1  5.50293000  3.72168000  1.85917000  1
  Mo  Mo15  1  3.59086000  5.41162000  1.73103000  1
