# generated using pymatgen
data_Mo
_symmetry_space_group_name_H-M   'P 1'
_cell_length_a   7.28968789
_cell_length_b   7.28968789
_cell_length_c   3.64484406
_cell_angle_alpha   90.00000000
_cell_angle_beta   90.00000000
_cell_angle_gamma   90.00000000
_symmetry_Int_Tables_number   1
_chemical_formula_structural   Mo
_chemical_formula_sum   Mo16
_cell_volume   193.68537117
_cell_formula_units_Z   16
loop_
 _symmetry_equiv_pos_site_id
 _symmetry_equiv_pos_as_xyz
  1  'x, y, z'
loop_
 _atom_site_type_symbol
 _atom_site_label
 _atom_site_symmetry_multiplicity
 _atom_site_fract_x
 _atom_site_fract_y
 _atom_site_fract_z
 _atom_site_occupancy
  Mo  Mo0  1  -0.07774170  7.26841000  3.57203000  1
  Mo  Mo1  1  1.80152000  1.75743000  3.76087000  1
  Mo  Mo2  1  1.83306000  0.06955210  1.82108000  1
  Mo  Mo3  1  0.07558270  1.84827000  1.86287000  1
  Mo  Mo4  1  3.60894000  7.37117000  -0.06861200  1
  Mo  Mo5  1  5.50239000  1.78435000  0.04975250  1
  Mo  Mo6  1  5.50487000  -0.14378600  1.76100000  1
  Mo  Mo7  1  3.70383000  1.77339000  1.83236000  1
  Mo  Mo8  1  7.40072000  3.59458000  3.78664000  1
  Mo  Mo9  1  1.67394000  5.52634000  -0.02385630  1
  Mo  Mo10  1  1.82701000  3.63899000  1.76902000  1
  Mo  Mo11  1  0.01897060  5.44437000  1.86678000  1
  Mo  Mo12  1  3.51364000  3.64212000  3.66146000  1
  Mo  Mo13  1  5.47153000  5.38939000  3.51774000  1
  Mo  Mo14  1  5.48721000  3.66016000  1.84318000  1
  Mo  Mo15  1  3.58883000  5.59927000  1.74454000  1
