# generated using pymatgen
data_Mo
_symmetry_space_group_name_H-M   'P 1'
_cell_length_a   7.28968789
_cell_length_b   7.28968789
_cell_length_c   3.64484406
_cell_angle_alpha   90.00000000
_cell_angle_beta   90.00000000
_cell_angle_gamma   90.00000000
_symmetry_Int_Tables_number   1
_chemical_formula_structural   Mo
_chemical_formula_sum   Mo16
_cell_volume   193.68537117
_cell_formula_units_Z   16
loop_
 _symmetry_equiv_pos_site_id
 _symmetry_equiv_pos_as_xyz
  1  'x, y, z'
loop_
 _atom_site_type_symbol
 _atom_site_label
 _atom_site_symmetry_multiplicity
 _atom_site_fract_x
 _atom_site_fract_y
 _atom_site_fract_z
 _atom_site_occupancy
  Mo  Mo0  1  -0.09993530  7.30162000  3.62750000  1
  Mo  Mo1  1  1.75027000  1.86109000  3.63439000  1
  Mo  Mo2  1  1.69382000  -0.07900190  1.73293000  1
  Mo  Mo3  1  0.00956507  1.71857000  1.87341000  1
  Mo  Mo4  1  3.55168000  7.48451000  -0.05465010  1
  Mo  Mo5  1  5.54528000  1.80556000  0.05891800  1
  Mo  Mo6  1  5.45113000  -0.03931850  1.82406000  1
  Mo  Mo7  1  3.63864000  1.89594000  1.75382000  1
  Mo  Mo8  1  7.37244000  3.66707000  3.62300000  1
  Mo  Mo9  1  1.92157000  5.34992000  -0.04193060  1
  Mo  Mo10  1  1.83825000  3.64633000  1.78825000  1
  Mo  Mo11  1  -0.07000080  5.42657000  1.90396000  1
  Mo  Mo12  1  3.71237000  3.58670000  3.65867000  1
  Mo  Mo13  1  5.41621000  5.43161000  3.67347000  1
  Mo  Mo14  1  5.58710000  3.61188000  1.90333000  1
  Mo  Mo15  1  3.61592000  5.55496000  1.79772000  1
