# generated using pymatgen
data_Mo
_symmetry_space_group_name_H-M   'P 1'
_cell_length_a   7.28968789
_cell_length_b   7.28968789
_cell_length_c   3.64484406
_cell_angle_alpha   90.00000000
_cell_angle_beta   90.00000000
_cell_angle_gamma   90.00000000
_symmetry_Int_Tables_number   1
_chemical_formula_structural   Mo
_chemical_formula_sum   Mo16
_cell_volume   193.68537117
_cell_formula_units_Z   16
loop_
 _symmetry_equiv_pos_site_id
 _symmetry_equiv_pos_as_xyz
  1  'x, y, z'
loop_
 _atom_site_type_symbol
 _atom_site_label
 _atom_site_symmetry_multiplicity
 _atom_site_fract_x
 _atom_site_fract_y
 _atom_site_fract_z
 _atom_site_occupancy
  Mo  Mo0  1  -0.00775098  7.27553000  3.66963000  1
  Mo  Mo1  1  1.78190000  1.80816000  3.59026000  1
  Mo  Mo2  1  1.91614000  -0.00928033  1.77252000  1
  Mo  Mo3  1  0.02899210  1.87154000  1.90240000  1
  Mo  Mo4  1  3.66963000  7.29020000  0.02781800  1
  Mo  Mo5  1  5.47854000  1.83295000  0.08513640  1
  Mo  Mo6  1  5.49704000  0.00118299  1.89179000  1
  Mo  Mo7  1  3.63135000  1.84176000  1.78192000  1
  Mo  Mo8  1  7.23951000  3.67514000  3.61713000  1
  Mo  Mo9  1  1.68985000  5.51370000  -0.09432770  1
  Mo  Mo10  1  1.78786000  3.61495000  1.67996000  1
  Mo  Mo11  1  0.06154360  5.49821000  1.74002000  1
  Mo  Mo12  1  3.69684000  3.59203000  3.62677000  1
  Mo  Mo13  1  5.43796000  5.49494000  3.71763000  1
  Mo  Mo14  1  5.41459000  3.57857000  1.95668000  1
  Mo  Mo15  1  3.61031000  5.34442000  1.79152000  1
