# generated using pymatgen
data_Mo
_symmetry_space_group_name_H-M   'P 1'
_cell_length_a   7.28968789
_cell_length_b   7.28968789
_cell_length_c   3.64484406
_cell_angle_alpha   90.00000000
_cell_angle_beta   90.00000000
_cell_angle_gamma   90.00000000
_symmetry_Int_Tables_number   1
_chemical_formula_structural   Mo
_chemical_formula_sum   Mo16
_cell_volume   193.68537117
_cell_formula_units_Z   16
loop_
 _symmetry_equiv_pos_site_id
 _symmetry_equiv_pos_as_xyz
  1  'x, y, z'
loop_
 _atom_site_type_symbol
 _atom_site_label
 _atom_site_symmetry_multiplicity
 _atom_site_fract_x
 _atom_site_fract_y
 _atom_site_fract_z
 _atom_site_occupancy
  Mo  Mo0  1  0.03923460  7.36523000  3.57450000  1
  Mo  Mo1  1  1.89596000  1.70437000  3.74229000  1
  Mo  Mo2  1  1.77158000  0.04817840  1.90728000  1
  Mo  Mo3  1  0.01854480  1.77989000  1.82271000  1
  Mo  Mo4  1  3.67293000  7.16722000  -0.01497870  1
  Mo  Mo5  1  5.44146000  1.73556000  -0.05807720  1
  Mo  Mo6  1  5.45726000  0.10453200  1.69192000  1
  Mo  Mo7  1  3.54468000  1.87474000  1.82159000  1
  Mo  Mo8  1  7.28259000  3.64011000  3.61042000  1
  Mo  Mo9  1  1.86729000  5.49874000  0.05426790  1
  Mo  Mo10  1  1.67870000  3.60636000  1.86103000  1
  Mo  Mo11  1  -0.02504880  5.51305000  1.82118000  1
  Mo  Mo12  1  3.56860000  3.69489000  3.61612000  1
  Mo  Mo13  1  5.57620000  5.51000000  3.57661000  1
  Mo  Mo14  1  5.51686000  3.58335000  1.83457000  1
  Mo  Mo15  1  3.62747000  5.39777000  1.89539000  1
