# generated using pymatgen
data_Mo
_symmetry_space_group_name_H-M   'P 1'
_cell_length_a   7.27806742
_cell_length_b   7.27806742
_cell_length_c   3.63903379
_cell_angle_alpha   90.00000000
_cell_angle_beta   90.00000000
_cell_angle_gamma   90.00000000
_symmetry_Int_Tables_number   1
_chemical_formula_structural   Mo
_chemical_formula_sum   Mo16
_cell_volume   192.76058556
_cell_formula_units_Z   16
loop_
 _symmetry_equiv_pos_site_id
 _symmetry_equiv_pos_as_xyz
  1  'x, y, z'
loop_
 _atom_site_type_symbol
 _atom_site_label
 _atom_site_symmetry_multiplicity
 _atom_site_fract_x
 _atom_site_fract_y
 _atom_site_fract_z
 _atom_site_occupancy
  Mo  Mo0  1  0.00397391  7.29036000  3.67287000  1
  Mo  Mo1  1  1.78601000  1.79281000  -0.03962920  1
  Mo  Mo2  1  1.80995000  7.26589000  1.81044000  1
  Mo  Mo3  1  7.25987000  1.82745000  1.80704000  1
  Mo  Mo4  1  3.61660000  7.27799000  0.01195690  1
  Mo  Mo5  1  5.45951000  1.83455000  0.02749270  1
  Mo  Mo6  1  5.46369000  -0.00167115  1.82672000  1
  Mo  Mo7  1  3.65167000  1.82490000  1.85418000  1
  Mo  Mo8  1  7.29874000  3.61915000  3.63584000  1
  Mo  Mo9  1  1.81612000  5.47123000  3.62256000  1
  Mo  Mo10  1  1.84606000  3.66788000  1.83897000  1
  Mo  Mo11  1  0.00564940  5.46220000  1.79164000  1
  Mo  Mo12  1  3.63654000  3.61282000  3.61629000  1
  Mo  Mo13  1  5.46011000  5.46447000  3.63044000  1
  Mo  Mo14  1  5.47187000  3.63260000  1.81870000  1
  Mo  Mo15  1  3.63764000  5.45944000  1.82553000  1
