# generated using pymatgen
data_Mo
_symmetry_space_group_name_H-M   'P 1'
_cell_length_a   7.28968789
_cell_length_b   7.28968789
_cell_length_c   3.64484406
_cell_angle_alpha   90.00000000
_cell_angle_beta   90.00000000
_cell_angle_gamma   90.00000000
_symmetry_Int_Tables_number   1
_chemical_formula_structural   Mo
_chemical_formula_sum   Mo16
_cell_volume   193.68537117
_cell_formula_units_Z   16
loop_
 _symmetry_equiv_pos_site_id
 _symmetry_equiv_pos_as_xyz
  1  'x, y, z'
loop_
 _atom_site_type_symbol
 _atom_site_label
 _atom_site_symmetry_multiplicity
 _atom_site_fract_x
 _atom_site_fract_y
 _atom_site_fract_z
 _atom_site_occupancy
  Mo  Mo0  1  0.08609840  7.21000000  3.72205000  1
  Mo  Mo1  1  1.78908000  1.77542000  3.60824000  1
  Mo  Mo2  1  1.88092000  -0.02586710  1.81480000  1
  Mo  Mo3  1  0.03431860  1.93242000  1.78379000  1
  Mo  Mo4  1  3.69008000  7.23518000  0.05033180  1
  Mo  Mo5  1  5.50830000  1.76599000  0.01709000  1
  Mo  Mo6  1  5.41261000  -0.07230480  1.88213000  1
  Mo  Mo7  1  3.59907000  1.87307000  1.83723000  1
  Mo  Mo8  1  7.26438000  3.72562000  3.60925000  1
  Mo  Mo9  1  1.93055000  5.60717000  0.02516680  1
  Mo  Mo10  1  1.73083000  3.72531000  1.82314000  1
  Mo  Mo11  1  0.02742950  5.42543000  1.69630000  1
  Mo  Mo12  1  3.58840000  3.56837000  3.64676000  1
  Mo  Mo13  1  5.28373000  5.51534000  3.67420000  1
  Mo  Mo14  1  5.40962000  3.67291000  1.70343000  1
  Mo  Mo15  1  3.69888000  5.28995000  1.86293000  1
