# generated using pymatgen
data_Mo
_symmetry_space_group_name_H-M   'P 1'
_cell_length_a   7.28968789
_cell_length_b   7.28968789
_cell_length_c   3.64484406
_cell_angle_alpha   90.00000000
_cell_angle_beta   90.00000000
_cell_angle_gamma   90.00000000
_symmetry_Int_Tables_number   1
_chemical_formula_structural   Mo
_chemical_formula_sum   Mo16
_cell_volume   193.68537117
_cell_formula_units_Z   16
loop_
 _symmetry_equiv_pos_site_id
 _symmetry_equiv_pos_as_xyz
  1  'x, y, z'
loop_
 _atom_site_type_symbol
 _atom_site_label
 _atom_site_symmetry_multiplicity
 _atom_site_fract_x
 _atom_site_fract_y
 _atom_site_fract_z
 _atom_site_occupancy
  Mo  Mo0  1  0.01009000  7.26488000  3.63375000  1
  Mo  Mo1  1  1.75777000  1.81737000  3.64758000  1
  Mo  Mo2  1  1.73643000  0.02282740  1.78411000  1
  Mo  Mo3  1  -0.04508260  1.82927000  1.83978000  1
  Mo  Mo4  1  3.70931000  7.20261000  0.03301860  1
  Mo  Mo5  1  5.39852000  1.89372000  -0.03635940  1
  Mo  Mo6  1  5.47857000  0.08045810  1.83007000  1
  Mo  Mo7  1  3.60440000  1.83828000  1.87040000  1
  Mo  Mo8  1  7.35473000  3.62477000  3.59354000  1
  Mo  Mo9  1  1.84500000  5.46965000  -0.02906230  1
  Mo  Mo10  1  1.83034000  3.53129000  1.86935000  1
  Mo  Mo11  1  0.13674200  5.42978000  1.71165000  1
  Mo  Mo12  1  3.56826000  3.67548000  3.61243000  1
  Mo  Mo13  1  5.48403000  5.45732000  3.64676000  1
  Mo  Mo14  1  5.49141000  3.68281000  1.93417000  1
  Mo  Mo15  1  3.57380000  5.40347000  1.81563000  1
