# generated using pymatgen
data_Mo
_symmetry_space_group_name_H-M   'P 1'
_cell_length_a   7.28968789
_cell_length_b   7.28968789
_cell_length_c   3.64484406
_cell_angle_alpha   90.00000000
_cell_angle_beta   90.00000000
_cell_angle_gamma   90.00000000
_symmetry_Int_Tables_number   1
_chemical_formula_structural   Mo
_chemical_formula_sum   Mo16
_cell_volume   193.68537117
_cell_formula_units_Z   16
loop_
 _symmetry_equiv_pos_site_id
 _symmetry_equiv_pos_as_xyz
  1  'x, y, z'
loop_
 _atom_site_type_symbol
 _atom_site_label
 _atom_site_symmetry_multiplicity
 _atom_site_fract_x
 _atom_site_fract_y
 _atom_site_fract_z
 _atom_site_occupancy
  Mo  Mo0  1  -0.07439970  7.25517000  3.66465000  1
  Mo  Mo1  1  1.81629000  1.86830000  3.59855000  1
  Mo  Mo2  1  1.80178000  -0.04808280  1.91018000  1
  Mo  Mo3  1  -0.03174380  1.75544000  1.78684000  1
  Mo  Mo4  1  3.60118000  7.39371000  -0.03929250  1
  Mo  Mo5  1  5.49773000  1.88577000  -0.11199100  1
  Mo  Mo6  1  5.33766000  -0.11522800  1.75310000  1
  Mo  Mo7  1  3.84426000  1.78099000  1.80614000  1
  Mo  Mo8  1  7.23262000  3.56875000  3.69436000  1
  Mo  Mo9  1  1.83474000  5.35671000  0.05289940  1
  Mo  Mo10  1  1.97662000  3.69857000  1.84655000  1
  Mo  Mo11  1  -0.03857030  5.37839000  1.86389000  1
  Mo  Mo12  1  3.61428000  3.68386000  3.68648000  1
  Mo  Mo13  1  5.42647000  5.37826000  3.61636000  1
  Mo  Mo14  1  5.45844000  3.77564000  1.70500000  1
  Mo  Mo15  1  3.63695000  5.60773000  1.92312000  1
