# generated using pymatgen
data_Mo
_symmetry_space_group_name_H-M   'P 1'
_cell_length_a   7.28968789
_cell_length_b   7.28968789
_cell_length_c   3.64484406
_cell_angle_alpha   90.00000000
_cell_angle_beta   90.00000000
_cell_angle_gamma   90.00000000
_symmetry_Int_Tables_number   1
_chemical_formula_structural   Mo
_chemical_formula_sum   Mo16
_cell_volume   193.68537117
_cell_formula_units_Z   16
loop_
 _symmetry_equiv_pos_site_id
 _symmetry_equiv_pos_as_xyz
  1  'x, y, z'
loop_
 _atom_site_type_symbol
 _atom_site_label
 _atom_site_symmetry_multiplicity
 _atom_site_fract_x
 _atom_site_fract_y
 _atom_site_fract_z
 _atom_site_occupancy
  Mo  Mo0  1  -0.04024900  7.28344000  3.60031000  1
  Mo  Mo1  1  1.81917000  1.74122000  3.60720000  1
  Mo  Mo2  1  1.67480000  -0.04667860  1.74010000  1
  Mo  Mo3  1  -0.07201150  1.81849000  1.87017000  1
  Mo  Mo4  1  3.62434000  7.41007000  -0.06232180  1
  Mo  Mo5  1  5.48439000  1.82282000  0.04894950  1
  Mo  Mo6  1  5.36782000  -0.00335440  1.86507000  1
  Mo  Mo7  1  3.62215000  1.92258000  1.76193000  1
  Mo  Mo8  1  7.42409000  3.52113000  3.68709000  1
  Mo  Mo9  1  1.85306000  5.59029000  -0.10114900  1
  Mo  Mo10  1  1.81118000  3.59235000  1.87288000  1
  Mo  Mo11  1  0.02019790  5.34697000  1.81771000  1
  Mo  Mo12  1  3.66801000  3.61532000  3.67352000  1
  Mo  Mo13  1  5.51164000  5.52283000  3.66050000  1
  Mo  Mo14  1  5.51264000  3.64478000  1.87416000  1
  Mo  Mo15  1  3.65309000  5.44174000  1.84074000  1
