# generated using pymatgen
data_Mo
_symmetry_space_group_name_H-M   'P 1'
_cell_length_a   7.28968789
_cell_length_b   7.28968789
_cell_length_c   3.64484406
_cell_angle_alpha   90.00000000
_cell_angle_beta   90.00000000
_cell_angle_gamma   90.00000000
_symmetry_Int_Tables_number   1
_chemical_formula_structural   Mo
_chemical_formula_sum   Mo16
_cell_volume   193.68537117
_cell_formula_units_Z   16
loop_
 _symmetry_equiv_pos_site_id
 _symmetry_equiv_pos_as_xyz
  1  'x, y, z'
loop_
 _atom_site_type_symbol
 _atom_site_label
 _atom_site_symmetry_multiplicity
 _atom_site_fract_x
 _atom_site_fract_y
 _atom_site_fract_z
 _atom_site_occupancy
  Mo  Mo0  1  0.11159800  7.20164000  3.65213000  1
  Mo  Mo1  1  1.88571000  1.85747000  3.64309000  1
  Mo  Mo2  1  1.82807000  0.06529360  1.88869000  1
  Mo  Mo3  1  0.09669900  1.82717000  1.81581000  1
  Mo  Mo4  1  3.50128000  7.26122000  -0.04672510  1
  Mo  Mo5  1  5.45974000  1.81596000  -0.08599950  1
  Mo  Mo6  1  5.44313000  -0.02372360  1.80060000  1
  Mo  Mo7  1  3.66475000  1.81052000  1.70970000  1
  Mo  Mo8  1  7.22391000  3.70977000  3.64784000  1
  Mo  Mo9  1  1.69848000  5.40214000  0.05092060  1
  Mo  Mo10  1  1.89306000  3.67006000  1.79006000  1
  Mo  Mo11  1  -0.03517760  5.39494000  1.80743000  1
  Mo  Mo12  1  3.73084000  3.68793000  3.65751000  1
  Mo  Mo13  1  5.38102000  5.47812000  3.75893000  1
  Mo  Mo14  1  5.45951000  3.62363000  1.81745000  1
  Mo  Mo15  1  3.59169000  5.44188000  1.84941000  1
