# generated using pymatgen
data_Mo
_symmetry_space_group_name_H-M   'P 1'
_cell_length_a   7.28968789
_cell_length_b   7.28968789
_cell_length_c   3.64484406
_cell_angle_alpha   90.00000000
_cell_angle_beta   90.00000000
_cell_angle_gamma   90.00000000
_symmetry_Int_Tables_number   1
_chemical_formula_structural   Mo
_chemical_formula_sum   Mo16
_cell_volume   193.68537117
_cell_formula_units_Z   16
loop_
 _symmetry_equiv_pos_site_id
 _symmetry_equiv_pos_as_xyz
  1  'x, y, z'
loop_
 _atom_site_type_symbol
 _atom_site_label
 _atom_site_symmetry_multiplicity
 _atom_site_fract_x
 _atom_site_fract_y
 _atom_site_fract_z
 _atom_site_occupancy
  Mo  Mo0  1  -0.03518510  7.32613000  3.56911000  1
  Mo  Mo1  1  1.84092000  1.93198000  3.66984000  1
  Mo  Mo2  1  1.79152000  0.09723260  1.82021000  1
  Mo  Mo3  1  -0.12906100  1.79311000  1.78438000  1
  Mo  Mo4  1  3.71636000  7.30856000  0.01099030  1
  Mo  Mo5  1  5.39658000  1.73764000  0.00592552  1
  Mo  Mo6  1  5.43041000  0.00138463  1.81712000  1
  Mo  Mo7  1  3.67239000  1.85297000  1.80479000  1
  Mo  Mo8  1  7.12045000  3.54046000  3.60196000  1
  Mo  Mo9  1  1.97259000  5.39468000  0.12153200  1
  Mo  Mo10  1  1.75565000  3.67736000  1.89671000  1
  Mo  Mo11  1  0.13195700  5.40184000  1.81562000  1
  Mo  Mo12  1  3.57541000  3.61786000  3.62529000  1
  Mo  Mo13  1  5.56510000  5.48564000  3.67276000  1
  Mo  Mo14  1  5.41850000  3.61567000  1.76093000  1
  Mo  Mo15  1  3.71071000  5.44147000  1.77968000  1
