# generated using pymatgen
data_Mo
_symmetry_space_group_name_H-M   'P 1'
_cell_length_a   7.28968789
_cell_length_b   7.28968789
_cell_length_c   3.64484406
_cell_angle_alpha   90.00000000
_cell_angle_beta   90.00000000
_cell_angle_gamma   90.00000000
_symmetry_Int_Tables_number   1
_chemical_formula_structural   Mo
_chemical_formula_sum   Mo16
_cell_volume   193.68537117
_cell_formula_units_Z   16
loop_
 _symmetry_equiv_pos_site_id
 _symmetry_equiv_pos_as_xyz
  1  'x, y, z'
loop_
 _atom_site_type_symbol
 _atom_site_label
 _atom_site_symmetry_multiplicity
 _atom_site_fract_x
 _atom_site_fract_y
 _atom_site_fract_z
 _atom_site_occupancy
  Mo  Mo0  1  0.04196750  7.28376000  3.68501000  1
  Mo  Mo1  1  1.71686000  1.91451000  3.62941000  1
  Mo  Mo2  1  1.94999000  0.08339420  1.79288000  1
  Mo  Mo3  1  -0.09033110  1.78971000  1.80194000  1
  Mo  Mo4  1  3.71953000  7.34576000  -0.01124400  1
  Mo  Mo5  1  5.34022000  1.70527000  0.01901880  1
  Mo  Mo6  1  5.50156000  -0.05224520  1.80623000  1
  Mo  Mo7  1  3.60835000  1.88564000  1.92543000  1
  Mo  Mo8  1  7.33716000  3.62420000  3.72568000  1
  Mo  Mo9  1  1.80563000  5.42830000  -0.08076080  1
  Mo  Mo10  1  1.81109000  3.61016000  1.78838000  1
  Mo  Mo11  1  0.04847880  5.42961000  1.87392000  1
  Mo  Mo12  1  3.65319000  3.72599000  3.66625000  1
  Mo  Mo13  1  5.44815000  5.42213000  3.56054000  1
  Mo  Mo14  1  5.39161000  3.54990000  1.81664000  1
  Mo  Mo15  1  3.65086000  5.47791000  1.75753000  1
