# generated using pymatgen
data_Mo
_symmetry_space_group_name_H-M   'P 1'
_cell_length_a   7.28968789
_cell_length_b   7.28968789
_cell_length_c   3.64484406
_cell_angle_alpha   90.00000000
_cell_angle_beta   90.00000000
_cell_angle_gamma   90.00000000
_symmetry_Int_Tables_number   1
_chemical_formula_structural   Mo
_chemical_formula_sum   Mo16
_cell_volume   193.68537117
_cell_formula_units_Z   16
loop_
 _symmetry_equiv_pos_site_id
 _symmetry_equiv_pos_as_xyz
  1  'x, y, z'
loop_
 _atom_site_type_symbol
 _atom_site_label
 _atom_site_symmetry_multiplicity
 _atom_site_fract_x
 _atom_site_fract_y
 _atom_site_fract_z
 _atom_site_occupancy
  Mo  Mo0  1  -0.02375820  7.28033000  3.61298000  1
  Mo  Mo1  1  1.86760000  1.85579000  3.77671000  1
  Mo  Mo2  1  1.71272000  0.06878390  1.85499000  1
  Mo  Mo3  1  -0.08498160  1.84773000  1.84119000  1
  Mo  Mo4  1  3.69272000  7.29153000  -0.11251100  1
  Mo  Mo5  1  5.58078000  1.83749000  -0.03794280  1
  Mo  Mo6  1  5.53481000  -0.03712390  1.77518000  1
  Mo  Mo7  1  3.62488000  1.71686000  1.77933000  1
  Mo  Mo8  1  7.36314000  3.65007000  3.63801000  1
  Mo  Mo9  1  1.78656000  5.46938000  0.06399830  1
  Mo  Mo10  1  1.79384000  3.58783000  1.87146000  1
  Mo  Mo11  1  -0.00915446  5.45088000  1.75301000  1
  Mo  Mo12  1  3.63351000  3.62500000  3.64773000  1
  Mo  Mo13  1  5.41347000  5.42392000  3.60003000  1
  Mo  Mo14  1  5.51122000  3.59551000  1.88485000  1
  Mo  Mo15  1  3.53696000  5.56003000  1.80783000  1
