# generated using pymatgen
data_Mo
_symmetry_space_group_name_H-M   'P 1'
_cell_length_a   7.28968789
_cell_length_b   7.28968789
_cell_length_c   3.64484406
_cell_angle_alpha   90.00000000
_cell_angle_beta   90.00000000
_cell_angle_gamma   90.00000000
_symmetry_Int_Tables_number   1
_chemical_formula_structural   Mo
_chemical_formula_sum   Mo16
_cell_volume   193.68537117
_cell_formula_units_Z   16
loop_
 _symmetry_equiv_pos_site_id
 _symmetry_equiv_pos_as_xyz
  1  'x, y, z'
loop_
 _atom_site_type_symbol
 _atom_site_label
 _atom_site_symmetry_multiplicity
 _atom_site_fract_x
 _atom_site_fract_y
 _atom_site_fract_z
 _atom_site_occupancy
  Mo  Mo0  1  0.05744850  7.26979000  3.70777000  1
  Mo  Mo1  1  1.84577000  1.75659000  3.65969000  1
  Mo  Mo2  1  1.89154000  0.02400510  1.76010000  1
  Mo  Mo3  1  0.11379100  1.79987000  1.85471000  1
  Mo  Mo4  1  3.52894000  7.26397000  0.04753050  1
  Mo  Mo5  1  5.43813000  1.82165000  0.01781700  1
  Mo  Mo6  1  5.47220000  -0.04235340  1.82379000  1
  Mo  Mo7  1  3.60408000  1.86093000  1.77685000  1
  Mo  Mo8  1  7.34910000  3.67841000  3.69311000  1
  Mo  Mo9  1  1.74155000  5.50417000  -0.08206990  1
  Mo  Mo10  1  1.87076000  3.55626000  1.75105000  1
  Mo  Mo11  1  0.02164180  5.47162000  1.78779000  1
  Mo  Mo12  1  3.68387000  3.71096000  3.65811000  1
  Mo  Mo13  1  5.37240000  5.43493000  3.60372000  1
  Mo  Mo14  1  5.44982000  3.61288000  1.80232000  1
  Mo  Mo15  1  3.49326000  5.50033000  1.89456000  1
