# generated using pymatgen
data_Mo
_symmetry_space_group_name_H-M   'P 1'
_cell_length_a   7.28968789
_cell_length_b   7.28968789
_cell_length_c   3.64484406
_cell_angle_alpha   90.00000000
_cell_angle_beta   90.00000000
_cell_angle_gamma   90.00000000
_symmetry_Int_Tables_number   1
_chemical_formula_structural   Mo
_chemical_formula_sum   Mo16
_cell_volume   193.68537117
_cell_formula_units_Z   16
loop_
 _symmetry_equiv_pos_site_id
 _symmetry_equiv_pos_as_xyz
  1  'x, y, z'
loop_
 _atom_site_type_symbol
 _atom_site_label
 _atom_site_symmetry_multiplicity
 _atom_site_fract_x
 _atom_site_fract_y
 _atom_site_fract_z
 _atom_site_occupancy
  Mo  Mo0  1  0.08593690  7.33407000  3.64600000  1
  Mo  Mo1  1  1.86514000  1.94243000  3.53641000  1
  Mo  Mo2  1  1.75053000  -0.09223320  1.70013000  1
  Mo  Mo3  1  -0.08550090  1.76200000  1.76180000  1
  Mo  Mo4  1  3.59804000  7.33602000  -0.01534840  1
  Mo  Mo5  1  5.52738000  1.74593000  0.01994210  1
  Mo  Mo6  1  5.32301000  -0.08069590  1.79028000  1
  Mo  Mo7  1  3.67429000  1.89265000  1.80194000  1
  Mo  Mo8  1  7.28333000  3.65259000  3.70817000  1
  Mo  Mo9  1  1.90784000  5.38379000  0.04925990  1
  Mo  Mo10  1  1.81288000  3.68609000  1.77660000  1
  Mo  Mo11  1  -0.04680580  5.47691000  1.88383000  1
  Mo  Mo12  1  3.69776000  3.68121000  3.69477000  1
  Mo  Mo13  1  5.47281000  5.54752000  3.68117000  1
  Mo  Mo14  1  5.38907000  3.54192000  1.84881000  1
  Mo  Mo15  1  3.67861000  5.41381000  1.87310000  1
