# generated using pymatgen
data_Mo
_symmetry_space_group_name_H-M   'P 1'
_cell_length_a   7.27806742
_cell_length_b   7.27806742
_cell_length_c   3.63903379
_cell_angle_alpha   90.00000000
_cell_angle_beta   90.00000000
_cell_angle_gamma   90.00000000
_symmetry_Int_Tables_number   1
_chemical_formula_structural   Mo
_chemical_formula_sum   Mo16
_cell_volume   192.76058556
_cell_formula_units_Z   16
loop_
 _symmetry_equiv_pos_site_id
 _symmetry_equiv_pos_as_xyz
  1  'x, y, z'
loop_
 _atom_site_type_symbol
 _atom_site_label
 _atom_site_symmetry_multiplicity
 _atom_site_fract_x
 _atom_site_fract_y
 _atom_site_fract_z
 _atom_site_occupancy
  Mo  Mo0  1  0.00190568  7.27643000  3.62646000  1
  Mo  Mo1  1  1.81939000  1.82188000  -0.00478223  1
  Mo  Mo2  1  1.84334000  7.28100000  1.81715000  1
  Mo  Mo3  1  7.28556000  1.82541000  1.82145000  1
  Mo  Mo4  1  3.65483000  7.29620000  -0.00464740  1
  Mo  Mo5  1  5.45145000  1.80016000  -0.01504320  1
  Mo  Mo6  1  5.46973000  -0.01276420  1.82740000  1
  Mo  Mo7  1  3.63897000  1.82166000  1.78659000  1
  Mo  Mo8  1  7.27966000  3.62815000  3.65414000  1
  Mo  Mo9  1  1.80592000  5.45655000  3.66701000  1
  Mo  Mo10  1  1.81929000  3.64512000  1.82782000  1
  Mo  Mo11  1  -0.01533940  5.44359000  1.84698000  1
  Mo  Mo12  1  3.62077000  3.62501000  3.67757000  1
  Mo  Mo13  1  5.44472000  5.45587000  3.60901000  1
  Mo  Mo14  1  5.45479000  3.68282000  1.81067000  1
  Mo  Mo15  1  3.64902000  5.45497000  1.80326000  1
