# generated using pymatgen
data_Mo
_symmetry_space_group_name_H-M   'P 1'
_cell_length_a   7.28968789
_cell_length_b   7.28968789
_cell_length_c   3.64484406
_cell_angle_alpha   90.00000000
_cell_angle_beta   90.00000000
_cell_angle_gamma   90.00000000
_symmetry_Int_Tables_number   1
_chemical_formula_structural   Mo
_chemical_formula_sum   Mo16
_cell_volume   193.68537117
_cell_formula_units_Z   16
loop_
 _symmetry_equiv_pos_site_id
 _symmetry_equiv_pos_as_xyz
  1  'x, y, z'
loop_
 _atom_site_type_symbol
 _atom_site_label
 _atom_site_symmetry_multiplicity
 _atom_site_fract_x
 _atom_site_fract_y
 _atom_site_fract_z
 _atom_site_occupancy
  Mo  Mo0  1  -0.02173700  7.30285000  3.61143000  1
  Mo  Mo1  1  1.77705000  1.76480000  3.66848000  1
  Mo  Mo2  1  1.74972000  -0.11210000  1.91289000  1
  Mo  Mo3  1  -0.06279490  1.82795000  1.80452000  1
  Mo  Mo4  1  3.68371000  7.26098000  -0.03484550  1
  Mo  Mo5  1  5.50083000  1.89478000  -0.08614700  1
  Mo  Mo6  1  5.38898000  0.00682229  1.75919000  1
  Mo  Mo7  1  3.58341000  1.78816000  1.76610000  1
  Mo  Mo8  1  7.42102000  3.65415000  3.58133000  1
  Mo  Mo9  1  1.88710000  5.44538000  0.05462900  1
  Mo  Mo10  1  1.81578000  3.69140000  1.84800000  1
  Mo  Mo11  1  0.00701845  5.50401000  1.75404000  1
  Mo  Mo12  1  3.53158000  3.52694000  3.67026000  1
  Mo  Mo13  1  5.52930000  5.50113000  3.72481000  1
  Mo  Mo14  1  5.46763000  3.74388000  1.84017000  1
  Mo  Mo15  1  3.67571000  5.42286000  1.88199000  1
