# generated using pymatgen
data_Mo
_symmetry_space_group_name_H-M   'P 1'
_cell_length_a   7.28968789
_cell_length_b   7.28968789
_cell_length_c   3.64484406
_cell_angle_alpha   90.00000000
_cell_angle_beta   90.00000000
_cell_angle_gamma   90.00000000
_symmetry_Int_Tables_number   1
_chemical_formula_structural   Mo
_chemical_formula_sum   Mo16
_cell_volume   193.68537117
_cell_formula_units_Z   16
loop_
 _symmetry_equiv_pos_site_id
 _symmetry_equiv_pos_as_xyz
  1  'x, y, z'
loop_
 _atom_site_type_symbol
 _atom_site_label
 _atom_site_symmetry_multiplicity
 _atom_site_fract_x
 _atom_site_fract_y
 _atom_site_fract_z
 _atom_site_occupancy
  Mo  Mo0  1  -0.05808340  7.24503000  3.67190000  1
  Mo  Mo1  1  1.89932000  1.89589000  3.63807000  1
  Mo  Mo2  1  1.69628000  0.08432130  1.75595000  1
  Mo  Mo3  1  0.00792732  1.81628000  1.90464000  1
  Mo  Mo4  1  3.76193000  7.26242000  -0.03171030  1
  Mo  Mo5  1  5.50032000  1.75452000  -0.05118400  1
  Mo  Mo6  1  5.45491000  -0.09569600  1.74233000  1
  Mo  Mo7  1  3.63584000  1.73089000  1.76616000  1
  Mo  Mo8  1  7.43345000  3.65162000  3.65851000  1
  Mo  Mo9  1  1.76076000  5.59975000  -0.00877745  1
  Mo  Mo10  1  1.75753000  3.66265000  1.92778000  1
  Mo  Mo11  1  -0.01229310  5.38538000  1.77961000  1
  Mo  Mo12  1  3.59223000  3.64528000  3.61058000  1
  Mo  Mo13  1  5.49318000  5.39655000  3.71519000  1
  Mo  Mo14  1  5.49318000  3.63060000  1.89119000  1
  Mo  Mo15  1  3.51784000  5.55851000  1.78660000  1
