# generated using pymatgen
data_Mo
_symmetry_space_group_name_H-M   'P 1'
_cell_length_a   7.28968789
_cell_length_b   7.28968789
_cell_length_c   3.64484406
_cell_angle_alpha   90.00000000
_cell_angle_beta   90.00000000
_cell_angle_gamma   90.00000000
_symmetry_Int_Tables_number   1
_chemical_formula_structural   Mo
_chemical_formula_sum   Mo16
_cell_volume   193.68537117
_cell_formula_units_Z   16
loop_
 _symmetry_equiv_pos_site_id
 _symmetry_equiv_pos_as_xyz
  1  'x, y, z'
loop_
 _atom_site_type_symbol
 _atom_site_label
 _atom_site_symmetry_multiplicity
 _atom_site_fract_x
 _atom_site_fract_y
 _atom_site_fract_z
 _atom_site_occupancy
  Mo  Mo0  1  -0.11737800  7.27765000  3.64717000  1
  Mo  Mo1  1  1.71931000  1.74857000  3.61176000  1
  Mo  Mo2  1  1.80452000  0.01631370  1.82479000  1
  Mo  Mo3  1  -0.01527410  1.91431000  1.76506000  1
  Mo  Mo4  1  3.61854000  7.26417000  -0.09662550  1
  Mo  Mo5  1  5.45602000  1.83059000  -0.07759390  1
  Mo  Mo6  1  5.56906000  -0.11037400  1.88938000  1
  Mo  Mo7  1  3.69535000  1.78778000  1.72991000  1
  Mo  Mo8  1  7.30765000  3.64133000  3.64924000  1
  Mo  Mo9  1  1.75880000  5.55028000  0.06165260  1
  Mo  Mo10  1  1.88495000  3.67518000  1.81319000  1
  Mo  Mo11  1  0.09169120  5.48371000  1.94235000  1
  Mo  Mo12  1  3.51717000  3.61465000  3.69293000  1
  Mo  Mo13  1  5.49021000  5.42941000  3.63050000  1
  Mo  Mo14  1  5.49350000  3.60398000  1.75319000  1
  Mo  Mo15  1  3.66021000  5.49646000  1.91994000  1
