# generated using pymatgen
data_Mo
_symmetry_space_group_name_H-M   'P 1'
_cell_length_a   7.28968789
_cell_length_b   7.28968789
_cell_length_c   3.64484406
_cell_angle_alpha   90.00000000
_cell_angle_beta   90.00000000
_cell_angle_gamma   90.00000000
_symmetry_Int_Tables_number   1
_chemical_formula_structural   Mo
_chemical_formula_sum   Mo16
_cell_volume   193.68537117
_cell_formula_units_Z   16
loop_
 _symmetry_equiv_pos_site_id
 _symmetry_equiv_pos_as_xyz
  1  'x, y, z'
loop_
 _atom_site_type_symbol
 _atom_site_label
 _atom_site_symmetry_multiplicity
 _atom_site_fract_x
 _atom_site_fract_y
 _atom_site_fract_z
 _atom_site_occupancy
  Mo  Mo0  1  0.05749870  7.25615000  3.65417000  1
  Mo  Mo1  1  1.81638000  1.69583000  3.65556000  1
  Mo  Mo2  1  1.72421000  0.05000220  1.78539000  1
  Mo  Mo3  1  -0.01965310  1.77686000  1.88978000  1
  Mo  Mo4  1  3.68659000  7.24214000  -0.01794660  1
  Mo  Mo5  1  5.47354000  1.89679000  0.07362860  1
  Mo  Mo6  1  5.52781000  0.06633530  1.79404000  1
  Mo  Mo7  1  3.58733000  1.77518000  1.97376000  1
  Mo  Mo8  1  7.32791000  3.64313000  3.59351000  1
  Mo  Mo9  1  1.80588000  5.56858000  -0.06707900  1
  Mo  Mo10  1  1.79400000  3.53394000  1.91111000  1
  Mo  Mo11  1  0.07046530  5.39795000  1.72485000  1
  Mo  Mo12  1  3.57064000  3.68921000  3.60518000  1
  Mo  Mo13  1  5.49537000  5.43953000  3.56878000  1
  Mo  Mo14  1  5.49103000  3.72526000  1.93011000  1
  Mo  Mo15  1  3.52532000  5.46711000  1.68200000  1
