# generated using pymatgen
data_Mo
_symmetry_space_group_name_H-M   'P 1'
_cell_length_a   7.28968789
_cell_length_b   7.28968789
_cell_length_c   3.64484406
_cell_angle_alpha   90.00000000
_cell_angle_beta   90.00000000
_cell_angle_gamma   90.00000000
_symmetry_Int_Tables_number   1
_chemical_formula_structural   Mo
_chemical_formula_sum   Mo16
_cell_volume   193.68537117
_cell_formula_units_Z   16
loop_
 _symmetry_equiv_pos_site_id
 _symmetry_equiv_pos_as_xyz
  1  'x, y, z'
loop_
 _atom_site_type_symbol
 _atom_site_label
 _atom_site_symmetry_multiplicity
 _atom_site_fract_x
 _atom_site_fract_y
 _atom_site_fract_z
 _atom_site_occupancy
  Mo  Mo0  1  -0.06490630  7.31173000  3.75948000  1
  Mo  Mo1  1  1.88997000  1.81983000  3.64668000  1
  Mo  Mo2  1  1.77067000  -0.04918690  1.82488000  1
  Mo  Mo3  1  -0.10735800  1.87293000  1.85130000  1
  Mo  Mo4  1  3.81578000  7.28064000  0.06506740  1
  Mo  Mo5  1  5.49941000  1.90539000  -0.01027220  1
  Mo  Mo6  1  5.46870000  0.02430070  1.81287000  1
  Mo  Mo7  1  3.64119000  1.74197000  1.80011000  1
  Mo  Mo8  1  7.34743000  3.64503000  3.54501000  1
  Mo  Mo9  1  1.84122000  5.44531000  -0.01450540  1
  Mo  Mo10  1  1.76832000  3.56427000  1.80886000  1
  Mo  Mo11  1  -0.07770840  5.34400000  1.75833000  1
  Mo  Mo12  1  3.65105000  3.58177000  3.58741000  1
  Mo  Mo13  1  5.50980000  5.45368000  3.71294000  1
  Mo  Mo14  1  5.37805000  3.75927000  1.77178000  1
  Mo  Mo15  1  3.60270000  5.52304000  1.83689000  1
