# generated using pymatgen
data_Mo
_symmetry_space_group_name_H-M   'P 1'
_cell_length_a   7.28968789
_cell_length_b   7.28968789
_cell_length_c   3.64484406
_cell_angle_alpha   90.00000000
_cell_angle_beta   90.00000000
_cell_angle_gamma   90.00000000
_symmetry_Int_Tables_number   1
_chemical_formula_structural   Mo
_chemical_formula_sum   Mo16
_cell_volume   193.68537117
_cell_formula_units_Z   16
loop_
 _symmetry_equiv_pos_site_id
 _symmetry_equiv_pos_as_xyz
  1  'x, y, z'
loop_
 _atom_site_type_symbol
 _atom_site_label
 _atom_site_symmetry_multiplicity
 _atom_site_fract_x
 _atom_site_fract_y
 _atom_site_fract_z
 _atom_site_occupancy
  Mo  Mo0  1  -0.03881710  7.18258000  3.67450000  1
  Mo  Mo1  1  1.71167000  1.84408000  3.63345000  1
  Mo  Mo2  1  1.79893000  0.09761930  1.77857000  1
  Mo  Mo3  1  0.04071200  1.80180000  1.85690000  1
  Mo  Mo4  1  3.59839000  7.28706000  -0.12047400  1
  Mo  Mo5  1  5.61370000  1.80634000  -0.07796920  1
  Mo  Mo6  1  5.40994000  0.10460200  1.81036000  1
  Mo  Mo7  1  3.66184000  1.81880000  1.81356000  1
  Mo  Mo8  1  7.30462000  3.55358000  3.76839000  1
  Mo  Mo9  1  1.73742000  5.48569000  0.01258940  1
  Mo  Mo10  1  1.86193000  3.60478000  1.96004000  1
  Mo  Mo11  1  -0.00553586  5.43868000  1.79892000  1
  Mo  Mo12  1  3.68397000  3.67629000  3.63303000  1
  Mo  Mo13  1  5.39875000  5.50866000  3.63507000  1
  Mo  Mo14  1  5.50564000  3.56619000  1.76305000  1
  Mo  Mo15  1  3.65115000  5.44724000  1.81685000  1
