# generated using pymatgen
data_Mo
_symmetry_space_group_name_H-M   'P 1'
_cell_length_a   7.28968789
_cell_length_b   7.28968789
_cell_length_c   3.64484406
_cell_angle_alpha   90.00000000
_cell_angle_beta   90.00000000
_cell_angle_gamma   90.00000000
_symmetry_Int_Tables_number   1
_chemical_formula_structural   Mo
_chemical_formula_sum   Mo16
_cell_volume   193.68537117
_cell_formula_units_Z   16
loop_
 _symmetry_equiv_pos_site_id
 _symmetry_equiv_pos_as_xyz
  1  'x, y, z'
loop_
 _atom_site_type_symbol
 _atom_site_label
 _atom_site_symmetry_multiplicity
 _atom_site_fract_x
 _atom_site_fract_y
 _atom_site_fract_z
 _atom_site_occupancy
  Mo  Mo0  1  0.00521237  7.32463000  3.69752000  1
  Mo  Mo1  1  1.82459000  1.89114000  3.51733000  1
  Mo  Mo2  1  1.82747000  -0.09894280  1.78853000  1
  Mo  Mo3  1  -0.00849332  1.81601000  1.82035000  1
  Mo  Mo4  1  3.70442000  7.19302000  -0.00775504  1
  Mo  Mo5  1  5.32757000  1.94787000  0.03752850  1
  Mo  Mo6  1  5.53389000  0.01841100  1.99693000  1
  Mo  Mo7  1  3.64622000  1.65511000  1.89997000  1
  Mo  Mo8  1  7.28243000  3.56627000  3.64385000  1
  Mo  Mo9  1  1.78940000  5.35790000  -0.08666910  1
  Mo  Mo10  1  1.87465000  3.72164000  1.76125000  1
  Mo  Mo11  1  -0.04479960  5.55948000  1.73556000  1
  Mo  Mo12  1  3.57248000  3.66765000  3.62771000  1
  Mo  Mo13  1  5.43603000  5.40633000  3.68291000  1
  Mo  Mo14  1  5.39431000  3.66525000  1.80203000  1
  Mo  Mo15  1  3.76893000  5.53222000  1.83981000  1
