# generated using pymatgen
data_Mo
_symmetry_space_group_name_H-M   'P 1'
_cell_length_a   7.28968789
_cell_length_b   7.28968789
_cell_length_c   3.64484406
_cell_angle_alpha   90.00000000
_cell_angle_beta   90.00000000
_cell_angle_gamma   90.00000000
_symmetry_Int_Tables_number   1
_chemical_formula_structural   Mo
_chemical_formula_sum   Mo16
_cell_volume   193.68537117
_cell_formula_units_Z   16
loop_
 _symmetry_equiv_pos_site_id
 _symmetry_equiv_pos_as_xyz
  1  'x, y, z'
loop_
 _atom_site_type_symbol
 _atom_site_label
 _atom_site_symmetry_multiplicity
 _atom_site_fract_x
 _atom_site_fract_y
 _atom_site_fract_z
 _atom_site_occupancy
  Mo  Mo0  1  0.05287280  7.31397000  3.70933000  1
  Mo  Mo1  1  1.70723000  1.83920000  3.62144000  1
  Mo  Mo2  1  1.86217000  -0.06094010  1.87083000  1
  Mo  Mo3  1  0.08125830  1.81380000  1.73191000  1
  Mo  Mo4  1  3.53946000  7.37478000  0.08353870  1
  Mo  Mo5  1  5.38437000  1.71326000  -0.05684950  1
  Mo  Mo6  1  5.43126000  -0.10523000  1.78779000  1
  Mo  Mo7  1  3.52532000  1.82392000  1.87896000  1
  Mo  Mo8  1  7.32536000  3.54198000  3.70852000  1
  Mo  Mo9  1  1.75789000  5.46623000  0.00812640  1
  Mo  Mo10  1  1.81862000  3.70592000  1.78150000  1
  Mo  Mo11  1  0.12785100  5.39678000  1.85415000  1
  Mo  Mo12  1  3.67889000  3.71844000  3.64177000  1
  Mo  Mo13  1  5.51136000  5.49616000  3.57376000  1
  Mo  Mo14  1  5.43680000  3.67043000  1.76882000  1
  Mo  Mo15  1  3.69361000  5.51529000  1.79325000  1
