# generated using pymatgen
data_Mo
_symmetry_space_group_name_H-M   'P 1'
_cell_length_a   7.27806742
_cell_length_b   7.27806742
_cell_length_c   3.63903379
_cell_angle_alpha   90.00000000
_cell_angle_beta   90.00000000
_cell_angle_gamma   90.00000000
_symmetry_Int_Tables_number   1
_chemical_formula_structural   Mo
_chemical_formula_sum   Mo16
_cell_volume   192.76058556
_cell_formula_units_Z   16
loop_
 _symmetry_equiv_pos_site_id
 _symmetry_equiv_pos_as_xyz
  1  'x, y, z'
loop_
 _atom_site_type_symbol
 _atom_site_label
 _atom_site_symmetry_multiplicity
 _atom_site_fract_x
 _atom_site_fract_y
 _atom_site_fract_z
 _atom_site_occupancy
  Mo  Mo0  1  -0.00637298  7.27875000  3.61894000  1
  Mo  Mo1  1  1.83711000  1.82604000  0.00634859  1
  Mo  Mo2  1  1.80066000  7.28434000  1.80322000  1
  Mo  Mo3  1  7.27122000  1.80660000  1.83189000  1
  Mo  Mo4  1  3.62366000  7.26778000  0.02574390  1
  Mo  Mo5  1  5.45139000  1.82373000  0.03285920  1
  Mo  Mo6  1  5.43487000  0.01701740  1.85222000  1
  Mo  Mo7  1  3.63807000  1.81685000  1.83450000  1
  Mo  Mo8  1  7.27095000  3.66058000  3.61719000  1
  Mo  Mo9  1  1.83054000  5.44463000  3.63028000  1
  Mo  Mo10  1  1.82277000  3.62765000  1.80731000  1
  Mo  Mo11  1  0.01036920  5.46266000  1.81704000  1
  Mo  Mo12  1  3.66843000  3.66529000  3.63395000  1
  Mo  Mo13  1  5.46701000  5.45027000  3.64138000  1
  Mo  Mo14  1  5.46462000  3.61656000  1.79696000  1
  Mo  Mo15  1  3.63869000  5.45333000  1.80123000  1
