# generated using pymatgen
data_Mo
_symmetry_space_group_name_H-M   'P 1'
_cell_length_a   7.28968789
_cell_length_b   7.28968789
_cell_length_c   3.64484406
_cell_angle_alpha   90.00000000
_cell_angle_beta   90.00000000
_cell_angle_gamma   90.00000000
_symmetry_Int_Tables_number   1
_chemical_formula_structural   Mo
_chemical_formula_sum   Mo16
_cell_volume   193.68537117
_cell_formula_units_Z   16
loop_
 _symmetry_equiv_pos_site_id
 _symmetry_equiv_pos_as_xyz
  1  'x, y, z'
loop_
 _atom_site_type_symbol
 _atom_site_label
 _atom_site_symmetry_multiplicity
 _atom_site_fract_x
 _atom_site_fract_y
 _atom_site_fract_z
 _atom_site_occupancy
  Mo  Mo0  1  -0.11115000  7.22474000  3.68751000  1
  Mo  Mo1  1  1.71949000  1.80204000  3.57896000  1
  Mo  Mo2  1  1.84899000  0.05665400  1.78832000  1
  Mo  Mo3  1  -0.00673462  1.87586000  1.84772000  1
  Mo  Mo4  1  3.66786000  7.17126000  0.06075350  1
  Mo  Mo5  1  5.31037000  1.76485000  0.06214580  1
  Mo  Mo6  1  5.49526000  0.14369900  1.90915000  1
  Mo  Mo7  1  3.50771000  1.77081000  1.85403000  1
  Mo  Mo8  1  7.39782000  3.76157000  3.57024000  1
  Mo  Mo9  1  2.01984000  5.49365000  -0.10680300  1
  Mo  Mo10  1  1.76903000  3.67082000  1.79858000  1
  Mo  Mo11  1  0.12077000  5.49827000  1.87731000  1
  Mo  Mo12  1  3.59783000  3.59887000  3.56516000  1
  Mo  Mo13  1  5.46662000  5.43784000  3.68961000  1
  Mo  Mo14  1  5.47203000  3.56840000  1.79511000  1
  Mo  Mo15  1  3.65860000  5.38466000  1.77903000  1
