# generated using pymatgen
data_Mo
_symmetry_space_group_name_H-M   'P 1'
_cell_length_a   7.28968789
_cell_length_b   7.28968789
_cell_length_c   3.64484406
_cell_angle_alpha   90.00000000
_cell_angle_beta   90.00000000
_cell_angle_gamma   90.00000000
_symmetry_Int_Tables_number   1
_chemical_formula_structural   Mo
_chemical_formula_sum   Mo16
_cell_volume   193.68537117
_cell_formula_units_Z   16
loop_
 _symmetry_equiv_pos_site_id
 _symmetry_equiv_pos_as_xyz
  1  'x, y, z'
loop_
 _atom_site_type_symbol
 _atom_site_label
 _atom_site_symmetry_multiplicity
 _atom_site_fract_x
 _atom_site_fract_y
 _atom_site_fract_z
 _atom_site_occupancy
  Mo  Mo0  1  -0.09228500  7.35876000  3.59139000  1
  Mo  Mo1  1  1.83893000  1.86754000  3.61832000  1
  Mo  Mo2  1  1.84248000  0.00037617  1.90834000  1
  Mo  Mo3  1  -0.03159440  1.91905000  1.72339000  1
  Mo  Mo4  1  3.57334000  7.31772000  -0.00222499  1
  Mo  Mo5  1  5.45894000  1.83820000  -0.03104430  1
  Mo  Mo6  1  5.40258000  -0.10845700  1.80042000  1
  Mo  Mo7  1  3.60702000  1.82484000  1.81673000  1
  Mo  Mo8  1  7.42552000  3.61287000  3.69158000  1
  Mo  Mo9  1  1.81496000  5.42244000  0.06540730  1
  Mo  Mo10  1  1.79795000  3.63549000  1.73557000  1
  Mo  Mo11  1  0.02949060  5.43239000  1.94578000  1
  Mo  Mo12  1  3.61580000  3.58212000  3.66740000  1
  Mo  Mo13  1  5.54397000  5.42722000  3.63158000  1
  Mo  Mo14  1  5.46508000  3.62672000  1.71843000  1
  Mo  Mo15  1  3.64213000  5.46671000  1.87576000  1
