# generated using pymatgen
data_Mo
_symmetry_space_group_name_H-M   'P 1'
_cell_length_a   7.28968789
_cell_length_b   7.28968789
_cell_length_c   3.64484406
_cell_angle_alpha   90.00000000
_cell_angle_beta   90.00000000
_cell_angle_gamma   90.00000000
_symmetry_Int_Tables_number   1
_chemical_formula_structural   Mo
_chemical_formula_sum   Mo16
_cell_volume   193.68537117
_cell_formula_units_Z   16
loop_
 _symmetry_equiv_pos_site_id
 _symmetry_equiv_pos_as_xyz
  1  'x, y, z'
loop_
 _atom_site_type_symbol
 _atom_site_label
 _atom_site_symmetry_multiplicity
 _atom_site_fract_x
 _atom_site_fract_y
 _atom_site_fract_z
 _atom_site_occupancy
  Mo  Mo0  1  0.06680140  7.30597000  3.60325000  1
  Mo  Mo1  1  1.85909000  1.74416000  3.71568000  1
  Mo  Mo2  1  1.84196000  -0.02770350  1.83729000  1
  Mo  Mo3  1  -0.00461123  1.77589000  1.81405000  1
  Mo  Mo4  1  3.64655000  7.34538000  -0.09582470  1
  Mo  Mo5  1  5.58988000  1.85463000  -0.09187300  1
  Mo  Mo6  1  5.34070000  0.00010162  1.76341000  1
  Mo  Mo7  1  3.75562000  1.86987000  1.78183000  1
  Mo  Mo8  1  7.24779000  3.63744000  3.73703000  1
  Mo  Mo9  1  1.74136000  5.52789000  0.05297110  1
  Mo  Mo10  1  1.85232000  3.55337000  1.94502000  1
  Mo  Mo11  1  -0.11644400  5.51696000  1.72937000  1
  Mo  Mo12  1  3.59338000  3.64286000  3.72568000  1
  Mo  Mo13  1  5.41710000  5.48094000  3.58761000  1
  Mo  Mo14  1  5.42417000  3.54628000  1.78339000  1
  Mo  Mo15  1  3.67866000  5.44996000  1.86795000  1
