# generated using pymatgen
data_Mo
_symmetry_space_group_name_H-M   'P 1'
_cell_length_a   7.28968789
_cell_length_b   7.28968789
_cell_length_c   3.64484406
_cell_angle_alpha   90.00000000
_cell_angle_beta   90.00000000
_cell_angle_gamma   90.00000000
_symmetry_Int_Tables_number   1
_chemical_formula_structural   Mo
_chemical_formula_sum   Mo16
_cell_volume   193.68537117
_cell_formula_units_Z   16
loop_
 _symmetry_equiv_pos_site_id
 _symmetry_equiv_pos_as_xyz
  1  'x, y, z'
loop_
 _atom_site_type_symbol
 _atom_site_label
 _atom_site_symmetry_multiplicity
 _atom_site_fract_x
 _atom_site_fract_y
 _atom_site_fract_z
 _atom_site_occupancy
  Mo  Mo0  1  0.07865860  7.21770000  3.60468000  1
  Mo  Mo1  1  1.88396000  1.82168000  3.67346000  1
  Mo  Mo2  1  1.75734000  -0.08161770  1.87307000  1
  Mo  Mo3  1  0.02468760  1.78614000  1.72322000  1
  Mo  Mo4  1  3.61014000  7.36598000  -0.02451030  1
  Mo  Mo5  1  5.62019000  1.98084000  -0.07923280  1
  Mo  Mo6  1  5.47464000  -0.11056300  1.83795000  1
  Mo  Mo7  1  3.64010000  1.82606000  1.83170000  1
  Mo  Mo8  1  7.31493000  3.61517000  3.65148000  1
  Mo  Mo9  1  1.72195000  5.45634000  0.11455200  1
  Mo  Mo10  1  1.81695000  3.67836000  1.86403000  1
  Mo  Mo11  1  -0.08687310  5.41561000  1.82590000  1
  Mo  Mo12  1  3.65480000  3.66576000  3.60313000  1
  Mo  Mo13  1  5.38178000  5.34237000  3.61400000  1
  Mo  Mo14  1  5.46440000  3.69931000  1.81212000  1
  Mo  Mo15  1  3.57666000  5.54488000  1.83129000  1
