# generated using pymatgen
data_Mo
_symmetry_space_group_name_H-M   'P 1'
_cell_length_a   7.28968789
_cell_length_b   7.28968789
_cell_length_c   3.64484406
_cell_angle_alpha   90.00000000
_cell_angle_beta   90.00000000
_cell_angle_gamma   90.00000000
_symmetry_Int_Tables_number   1
_chemical_formula_structural   Mo
_chemical_formula_sum   Mo16
_cell_volume   193.68537117
_cell_formula_units_Z   16
loop_
 _symmetry_equiv_pos_site_id
 _symmetry_equiv_pos_as_xyz
  1  'x, y, z'
loop_
 _atom_site_type_symbol
 _atom_site_label
 _atom_site_symmetry_multiplicity
 _atom_site_fract_x
 _atom_site_fract_y
 _atom_site_fract_z
 _atom_site_occupancy
  Mo  Mo0  1  -0.02766830  7.40044000  3.68915000  1
  Mo  Mo1  1  1.70705000  1.81494000  3.60373000  1
  Mo  Mo2  1  1.76262000  0.01480780  1.80988000  1
  Mo  Mo3  1  -0.08665810  1.80742000  1.81655000  1
  Mo  Mo4  1  3.61728000  7.36884000  0.02625600  1
  Mo  Mo5  1  5.42032000  1.84505000  0.03235470  1
  Mo  Mo6  1  5.45733000  -0.08535080  1.83572000  1
  Mo  Mo7  1  3.74653000  1.66767000  1.86030000  1
  Mo  Mo8  1  7.18613000  3.60337000  3.69655000  1
  Mo  Mo9  1  1.86237000  5.44763000  -0.10942000  1
  Mo  Mo10  1  1.97033000  3.61959000  1.77200000  1
  Mo  Mo11  1  0.09040430  5.50717000  1.81957000  1
  Mo  Mo12  1  3.60244000  3.51502000  3.66538000  1
  Mo  Mo13  1  5.54490000  5.41334000  3.65817000  1
  Mo  Mo14  1  5.38231000  3.72373000  1.72650000  1
  Mo  Mo15  1  3.69863000  5.56033000  1.85415000  1
