# generated using pymatgen
data_Mo
_symmetry_space_group_name_H-M   'P 1'
_cell_length_a   7.28968789
_cell_length_b   7.28968789
_cell_length_c   3.64484406
_cell_angle_alpha   90.00000000
_cell_angle_beta   90.00000000
_cell_angle_gamma   90.00000000
_symmetry_Int_Tables_number   1
_chemical_formula_structural   Mo
_chemical_formula_sum   Mo16
_cell_volume   193.68537117
_cell_formula_units_Z   16
loop_
 _symmetry_equiv_pos_site_id
 _symmetry_equiv_pos_as_xyz
  1  'x, y, z'
loop_
 _atom_site_type_symbol
 _atom_site_label
 _atom_site_symmetry_multiplicity
 _atom_site_fract_x
 _atom_site_fract_y
 _atom_site_fract_z
 _atom_site_occupancy
  Mo  Mo0  1  0.04020780  7.43981000  3.53367000  1
  Mo  Mo1  1  1.81512000  1.77859000  3.74093000  1
  Mo  Mo2  1  1.77367000  -0.03938640  1.83587000  1
  Mo  Mo3  1  -0.00982784  1.81897000  1.82869000  1
  Mo  Mo4  1  3.63701000  7.35840000  0.02983930  1
  Mo  Mo5  1  5.49766000  1.71536000  -0.03697270  1
  Mo  Mo6  1  5.56881000  -0.04134860  1.67978000  1
  Mo  Mo7  1  3.63143000  1.82213000  1.76007000  1
  Mo  Mo8  1  7.22172000  3.62137000  3.65498000  1
  Mo  Mo9  1  1.86099000  5.49131000  0.09905270  1
  Mo  Mo10  1  1.75041000  3.67545000  1.90928000  1
  Mo  Mo11  1  -0.08601590  5.41057000  1.85457000  1
  Mo  Mo12  1  3.66918000  3.61346000  3.70579000  1
  Mo  Mo13  1  5.48832000  5.46969000  3.56381000  1
  Mo  Mo14  1  5.45871000  3.58617000  1.79512000  1
  Mo  Mo15  1  3.61691000  5.50345000  1.80237000  1
