# generated using pymatgen
data_Mo
_symmetry_space_group_name_H-M   'P 1'
_cell_length_a   7.28968789
_cell_length_b   7.28968789
_cell_length_c   3.64484406
_cell_angle_alpha   90.00000000
_cell_angle_beta   90.00000000
_cell_angle_gamma   90.00000000
_symmetry_Int_Tables_number   1
_chemical_formula_structural   Mo
_chemical_formula_sum   Mo16
_cell_volume   193.68537117
_cell_formula_units_Z   16
loop_
 _symmetry_equiv_pos_site_id
 _symmetry_equiv_pos_as_xyz
  1  'x, y, z'
loop_
 _atom_site_type_symbol
 _atom_site_label
 _atom_site_symmetry_multiplicity
 _atom_site_fract_x
 _atom_site_fract_y
 _atom_site_fract_z
 _atom_site_occupancy
  Mo  Mo0  1  -0.01943120  7.36385000  3.58985000  1
  Mo  Mo1  1  1.78301000  1.79805000  3.65230000  1
  Mo  Mo2  1  1.79664000  0.04221380  1.76448000  1
  Mo  Mo3  1  -0.13243200  1.80944000  1.83646000  1
  Mo  Mo4  1  3.74772000  7.28854000  -0.00875713  1
  Mo  Mo5  1  5.48223000  1.91796000  0.15102000  1
  Mo  Mo6  1  5.42743000  -0.05768300  1.85709000  1
  Mo  Mo7  1  3.59260000  1.79408000  1.91948000  1
  Mo  Mo8  1  7.25215000  3.59533000  3.68503000  1
  Mo  Mo9  1  1.85247000  5.54549000  0.00822153  1
  Mo  Mo10  1  1.80404000  3.75725000  1.86192000  1
  Mo  Mo11  1  -0.09241950  5.44304000  1.72806000  1
  Mo  Mo12  1  3.66081000  3.55630000  3.62986000  1
  Mo  Mo13  1  5.57259000  5.31014000  3.62501000  1
  Mo  Mo14  1  5.47074000  3.63486000  1.79377000  1
  Mo  Mo15  1  3.73616000  5.42512000  1.66306000  1
