# generated using pymatgen
data_Mo
_symmetry_space_group_name_H-M   'P 1'
_cell_length_a   7.28968789
_cell_length_b   7.28968789
_cell_length_c   3.64484406
_cell_angle_alpha   90.00000000
_cell_angle_beta   90.00000000
_cell_angle_gamma   90.00000000
_symmetry_Int_Tables_number   1
_chemical_formula_structural   Mo
_chemical_formula_sum   Mo16
_cell_volume   193.68537117
_cell_formula_units_Z   16
loop_
 _symmetry_equiv_pos_site_id
 _symmetry_equiv_pos_as_xyz
  1  'x, y, z'
loop_
 _atom_site_type_symbol
 _atom_site_label
 _atom_site_symmetry_multiplicity
 _atom_site_fract_x
 _atom_site_fract_y
 _atom_site_fract_z
 _atom_site_occupancy
  Mo  Mo0  1  -0.06105060  7.30069000  3.57676000  1
  Mo  Mo1  1  1.86356000  1.73608000  3.65980000  1
  Mo  Mo2  1  1.87925000  0.08825590  1.85077000  1
  Mo  Mo3  1  0.11169500  1.77883000  1.84633000  1
  Mo  Mo4  1  3.67986000  7.26597000  -0.00374984  1
  Mo  Mo5  1  5.40049000  1.84061000  -0.07593570  1
  Mo  Mo6  1  5.54018000  0.12182100  1.67631000  1
  Mo  Mo7  1  3.55946000  1.78738000  1.77812000  1
  Mo  Mo8  1  7.27659000  3.62002000  3.59443000  1
  Mo  Mo9  1  1.88172000  5.51234000  0.05109970  1
  Mo  Mo10  1  1.74286000  3.59633000  1.90719000  1
  Mo  Mo11  1  -0.03334900  5.52354000  1.86055000  1
  Mo  Mo12  1  3.69266000  3.54082000  3.67415000  1
  Mo  Mo13  1  5.36873000  5.42160000  3.61937000  1
  Mo  Mo14  1  5.45106000  3.64628000  1.86653000  1
  Mo  Mo15  1  3.58058000  5.44341000  1.87511000  1
