# generated using pymatgen
data_Mo
_symmetry_space_group_name_H-M   'P 1'
_cell_length_a   7.27806742
_cell_length_b   7.27806742
_cell_length_c   3.63903379
_cell_angle_alpha   90.00000000
_cell_angle_beta   90.00000000
_cell_angle_gamma   90.00000000
_symmetry_Int_Tables_number   1
_chemical_formula_structural   Mo
_chemical_formula_sum   Mo16
_cell_volume   192.76058556
_cell_formula_units_Z   16
loop_
 _symmetry_equiv_pos_site_id
 _symmetry_equiv_pos_as_xyz
  1  'x, y, z'
loop_
 _atom_site_type_symbol
 _atom_site_label
 _atom_site_symmetry_multiplicity
 _atom_site_fract_x
 _atom_site_fract_y
 _atom_site_fract_z
 _atom_site_occupancy
  Mo  Mo0  1  -0.00752486  7.26210000  3.62952000  1
  Mo  Mo1  1  1.82805000  1.83018000  -0.00148169  1
  Mo  Mo2  1  1.81707000  7.27365000  1.82134000  1
  Mo  Mo3  1  7.26926000  1.81092000  1.82809000  1
  Mo  Mo4  1  3.63328000  7.25397000  0.02026980  1
  Mo  Mo5  1  5.44002000  1.82812000  0.01037420  1
  Mo  Mo6  1  5.45936000  0.01783440  1.85075000  1
  Mo  Mo7  1  3.62595000  1.82931000  1.83738000  1
  Mo  Mo8  1  7.26372000  3.63915000  3.61781000  1
  Mo  Mo9  1  1.81338000  5.45463000  3.62566000  1
  Mo  Mo10  1  1.84099000  3.63420000  1.78630000  1
  Mo  Mo11  1  0.02035840  5.47289000  1.82038000  1
  Mo  Mo12  1  3.66900000  3.65331000  3.65873000  1
  Mo  Mo13  1  5.43736000  5.45622000  3.61046000  1
  Mo  Mo14  1  5.47864000  3.62929000  1.82572000  1
  Mo  Mo15  1  3.63508000  5.45630000  1.80974000  1
