# generated using pymatgen
data_Mo
_symmetry_space_group_name_H-M   'P 1'
_cell_length_a   7.28968789
_cell_length_b   7.28968789
_cell_length_c   3.64484406
_cell_angle_alpha   90.00000000
_cell_angle_beta   90.00000000
_cell_angle_gamma   90.00000000
_symmetry_Int_Tables_number   1
_chemical_formula_structural   Mo
_chemical_formula_sum   Mo16
_cell_volume   193.68537117
_cell_formula_units_Z   16
loop_
 _symmetry_equiv_pos_site_id
 _symmetry_equiv_pos_as_xyz
  1  'x, y, z'
loop_
 _atom_site_type_symbol
 _atom_site_label
 _atom_site_symmetry_multiplicity
 _atom_site_fract_x
 _atom_site_fract_y
 _atom_site_fract_z
 _atom_site_occupancy
  Mo  Mo0  1  0.04091170  7.30923000  3.57816000  1
  Mo  Mo1  1  1.96480000  1.73096000  3.57453000  1
  Mo  Mo2  1  1.75742000  -0.06218100  1.82793000  1
  Mo  Mo3  1  0.07837980  1.76878000  1.77483000  1
  Mo  Mo4  1  3.52614000  7.27000000  0.02504760  1
  Mo  Mo5  1  5.54936000  1.87602000  -0.01316750  1
  Mo  Mo6  1  5.36729000  -0.00871137  1.90978000  1
  Mo  Mo7  1  3.64262000  1.76691000  1.81101000  1
  Mo  Mo8  1  7.37567000  3.59013000  3.56988000  1
  Mo  Mo9  1  1.81311000  5.48438000  0.08985970  1
  Mo  Mo10  1  1.87342000  3.70304000  1.88640000  1
  Mo  Mo11  1  -0.02574250  5.48873000  1.87097000  1
  Mo  Mo12  1  3.51843000  3.62279000  3.55973000  1
  Mo  Mo13  1  5.43985000  5.48022000  3.68763000  1
  Mo  Mo14  1  5.50057000  3.76405000  1.79684000  1
  Mo  Mo15  1  3.51210000  5.43965000  1.80740000  1
