# generated using pymatgen
data_Mo
_symmetry_space_group_name_H-M   'P 1'
_cell_length_a   7.28968789
_cell_length_b   7.28968789
_cell_length_c   3.64484406
_cell_angle_alpha   90.00000000
_cell_angle_beta   90.00000000
_cell_angle_gamma   90.00000000
_symmetry_Int_Tables_number   1
_chemical_formula_structural   Mo
_chemical_formula_sum   Mo16
_cell_volume   193.68537117
_cell_formula_units_Z   16
loop_
 _symmetry_equiv_pos_site_id
 _symmetry_equiv_pos_as_xyz
  1  'x, y, z'
loop_
 _atom_site_type_symbol
 _atom_site_label
 _atom_site_symmetry_multiplicity
 _atom_site_fract_x
 _atom_site_fract_y
 _atom_site_fract_z
 _atom_site_occupancy
  Mo  Mo0  1  0.03894320  7.22201000  3.63302000  1
  Mo  Mo1  1  1.78953000  1.83823000  3.61884000  1
  Mo  Mo2  1  1.95374000  0.03365190  1.97541000  1
  Mo  Mo3  1  0.09013590  1.86589000  1.74517000  1
  Mo  Mo4  1  3.48650000  7.26011000  0.02764350  1
  Mo  Mo5  1  5.37724000  1.79638000  0.02246500  1
  Mo  Mo6  1  5.51532000  0.07019920  1.86609000  1
  Mo  Mo7  1  3.59612000  1.85751000  1.88427000  1
  Mo  Mo8  1  7.22349000  3.60469000  3.56918000  1
  Mo  Mo9  1  1.81984000  5.43171000  0.00441050  1
  Mo  Mo10  1  1.78335000  3.56767000  1.85454000  1
  Mo  Mo11  1  0.02969210  5.42864000  1.85112000  1
  Mo  Mo12  1  3.68561000  3.58493000  3.58271000  1
  Mo  Mo13  1  5.44592000  5.49103000  3.59125000  1
  Mo  Mo14  1  5.50585000  3.73844000  1.77025000  1
  Mo  Mo15  1  3.59303000  5.43291000  1.76047000  1
