# generated using pymatgen
data_Mo
_symmetry_space_group_name_H-M   'P 1'
_cell_length_a   7.28968789
_cell_length_b   7.28968789
_cell_length_c   3.64484406
_cell_angle_alpha   90.00000000
_cell_angle_beta   90.00000000
_cell_angle_gamma   90.00000000
_symmetry_Int_Tables_number   1
_chemical_formula_structural   Mo
_chemical_formula_sum   Mo16
_cell_volume   193.68537117
_cell_formula_units_Z   16
loop_
 _symmetry_equiv_pos_site_id
 _symmetry_equiv_pos_as_xyz
  1  'x, y, z'
loop_
 _atom_site_type_symbol
 _atom_site_label
 _atom_site_symmetry_multiplicity
 _atom_site_fract_x
 _atom_site_fract_y
 _atom_site_fract_z
 _atom_site_occupancy
  Mo  Mo0  1  0.01212770  7.43499000  3.61209000  1
  Mo  Mo1  1  1.95111000  1.67606000  3.69480000  1
  Mo  Mo2  1  1.83216000  -0.03934080  1.76120000  1
  Mo  Mo3  1  0.00493776  1.93758000  1.79995000  1
  Mo  Mo4  1  3.74912000  7.21351000  0.07512050  1
  Mo  Mo5  1  5.40159000  1.72215000  0.04682500  1
  Mo  Mo6  1  5.57204000  0.03940040  1.84760000  1
  Mo  Mo7  1  3.58615000  1.79212000  1.79310000  1
  Mo  Mo8  1  7.19124000  3.72497000  3.52920000  1
  Mo  Mo9  1  1.80997000  5.54656000  0.00396306  1
  Mo  Mo10  1  1.77682000  3.64254000  1.82869000  1
  Mo  Mo11  1  -0.07656110  5.40472000  1.80916000  1
  Mo  Mo12  1  3.60166000  3.59813000  3.69748000  1
  Mo  Mo13  1  5.54315000  5.52007000  3.66690000  1
  Mo  Mo14  1  5.32988000  3.60927000  1.78397000  1
  Mo  Mo15  1  3.64892000  5.40127000  1.80679000  1
