# generated using pymatgen
data_Mo
_symmetry_space_group_name_H-M   'P 1'
_cell_length_a   7.28968789
_cell_length_b   7.28968789
_cell_length_c   3.64484406
_cell_angle_alpha   90.00000000
_cell_angle_beta   90.00000000
_cell_angle_gamma   90.00000000
_symmetry_Int_Tables_number   1
_chemical_formula_structural   Mo
_chemical_formula_sum   Mo16
_cell_volume   193.68537117
_cell_formula_units_Z   16
loop_
 _symmetry_equiv_pos_site_id
 _symmetry_equiv_pos_as_xyz
  1  'x, y, z'
loop_
 _atom_site_type_symbol
 _atom_site_label
 _atom_site_symmetry_multiplicity
 _atom_site_fract_x
 _atom_site_fract_y
 _atom_site_fract_z
 _atom_site_occupancy
  Mo  Mo0  1  -0.04309980  7.24026000  3.66234000  1
  Mo  Mo1  1  1.80443000  1.83677000  3.78867000  1
  Mo  Mo2  1  1.95622000  -0.04336460  1.79553000  1
  Mo  Mo3  1  0.05324380  1.79419000  1.90338000  1
  Mo  Mo4  1  3.68966000  7.20136000  0.03162150  1
  Mo  Mo5  1  5.32041000  1.75917000  0.05080610  1
  Mo  Mo6  1  5.47358000  0.09577930  1.81680000  1
  Mo  Mo7  1  3.62036000  1.74885000  1.81001000  1
  Mo  Mo8  1  7.15533000  3.65351000  3.64643000  1
  Mo  Mo9  1  1.79614000  5.41003000  -0.01729930  1
  Mo  Mo10  1  1.86275000  3.65577000  1.89556000  1
  Mo  Mo11  1  -0.03886590  5.52950000  1.65785000  1
  Mo  Mo12  1  3.67004000  3.63308000  3.62251000  1
  Mo  Mo13  1  5.39018000  5.54514000  3.55462000  1
  Mo  Mo14  1  5.49602000  3.67447000  1.81649000  1
  Mo  Mo15  1  3.72791000  5.48951000  1.72153000  1
