# generated using pymatgen
data_Mo
_symmetry_space_group_name_H-M   'P 1'
_cell_length_a   7.28968789
_cell_length_b   7.28968789
_cell_length_c   3.64484406
_cell_angle_alpha   90.00000000
_cell_angle_beta   90.00000000
_cell_angle_gamma   90.00000000
_symmetry_Int_Tables_number   1
_chemical_formula_structural   Mo
_chemical_formula_sum   Mo16
_cell_volume   193.68537117
_cell_formula_units_Z   16
loop_
 _symmetry_equiv_pos_site_id
 _symmetry_equiv_pos_as_xyz
  1  'x, y, z'
loop_
 _atom_site_type_symbol
 _atom_site_label
 _atom_site_symmetry_multiplicity
 _atom_site_fract_x
 _atom_site_fract_y
 _atom_site_fract_z
 _atom_site_occupancy
  Mo  Mo0  1  -0.01184450  7.21084000  3.61024000  1
  Mo  Mo1  1  1.79096000  1.73049000  3.63974000  1
  Mo  Mo2  1  1.78778000  0.00423802  1.76691000  1
  Mo  Mo3  1  0.15287000  1.87719000  1.79328000  1
  Mo  Mo4  1  3.62826000  7.32102000  0.02710390  1
  Mo  Mo5  1  5.55196000  1.84058000  -0.05559900  1
  Mo  Mo6  1  5.50553000  0.00550311  1.72937000  1
  Mo  Mo7  1  3.78275000  1.84834000  1.87442000  1
  Mo  Mo8  1  7.27438000  3.63267000  3.63894000  1
  Mo  Mo9  1  1.71404000  5.51701000  0.01088710  1
  Mo  Mo10  1  1.79591000  3.63304000  1.93306000  1
  Mo  Mo11  1  -0.03813300  5.30469000  1.83913000  1
  Mo  Mo12  1  3.60434000  3.67487000  3.73757000  1
  Mo  Mo13  1  5.41475000  5.42707000  3.59489000  1
  Mo  Mo14  1  5.44040000  3.68467000  1.76697000  1
  Mo  Mo15  1  3.54034000  5.51179000  1.84994000  1
