# generated using pymatgen
data_Mo
_symmetry_space_group_name_H-M   'P 1'
_cell_length_a   7.28968789
_cell_length_b   7.28968789
_cell_length_c   3.64484406
_cell_angle_alpha   90.00000000
_cell_angle_beta   90.00000000
_cell_angle_gamma   90.00000000
_symmetry_Int_Tables_number   1
_chemical_formula_structural   Mo
_chemical_formula_sum   Mo16
_cell_volume   193.68537117
_cell_formula_units_Z   16
loop_
 _symmetry_equiv_pos_site_id
 _symmetry_equiv_pos_as_xyz
  1  'x, y, z'
loop_
 _atom_site_type_symbol
 _atom_site_label
 _atom_site_symmetry_multiplicity
 _atom_site_fract_x
 _atom_site_fract_y
 _atom_site_fract_z
 _atom_site_occupancy
  Mo  Mo0  1  0.06870740  7.39788000  3.63237000  1
  Mo  Mo1  1  1.75362000  1.78274000  3.67388000  1
  Mo  Mo2  1  1.88318000  -0.05798480  1.89770000  1
  Mo  Mo3  1  -0.04187380  1.81957000  1.75172000  1
  Mo  Mo4  1  3.65202000  7.38222000  0.00263053  1
  Mo  Mo5  1  5.47233000  1.83899000  -0.03061670  1
  Mo  Mo6  1  5.31128000  -0.06019010  1.80513000  1
  Mo  Mo7  1  3.54707000  1.76304000  1.85566000  1
  Mo  Mo8  1  7.35050000  3.66978000  3.70379000  1
  Mo  Mo9  1  1.86567000  5.51873000  0.05447960  1
  Mo  Mo10  1  1.86184000  3.63592000  1.78178000  1
  Mo  Mo11  1  0.04299550  5.54862000  1.82794000  1
  Mo  Mo12  1  3.46511000  3.51330000  3.66627000  1
  Mo  Mo13  1  5.48934000  5.45931000  3.60906000  1
  Mo  Mo14  1  5.45853000  3.58272000  1.74355000  1
  Mo  Mo15  1  3.75400000  5.42935000  1.78151000  1
