# generated using pymatgen
data_Mo
_symmetry_space_group_name_H-M   'P 1'
_cell_length_a   7.28968789
_cell_length_b   7.28968789
_cell_length_c   3.64484406
_cell_angle_alpha   90.00000000
_cell_angle_beta   90.00000000
_cell_angle_gamma   90.00000000
_symmetry_Int_Tables_number   1
_chemical_formula_structural   Mo
_chemical_formula_sum   Mo16
_cell_volume   193.68537117
_cell_formula_units_Z   16
loop_
 _symmetry_equiv_pos_site_id
 _symmetry_equiv_pos_as_xyz
  1  'x, y, z'
loop_
 _atom_site_type_symbol
 _atom_site_label
 _atom_site_symmetry_multiplicity
 _atom_site_fract_x
 _atom_site_fract_y
 _atom_site_fract_z
 _atom_site_occupancy
  Mo  Mo0  1  -0.07133380  7.23396000  3.69105000  1
  Mo  Mo1  1  1.77310000  1.72825000  3.61663000  1
  Mo  Mo2  1  1.83300000  -0.05493460  1.83457000  1
  Mo  Mo3  1  0.10761300  1.82953000  1.69119000  1
  Mo  Mo4  1  3.64882000  7.22816000  0.03771670  1
  Mo  Mo5  1  5.42138000  1.83837000  -0.09910360  1
  Mo  Mo6  1  5.47944000  0.05133020  1.76172000  1
  Mo  Mo7  1  3.61127000  1.82132000  1.78710000  1
  Mo  Mo8  1  7.42168000  3.76620000  3.65846000  1
  Mo  Mo9  1  1.77089000  5.39587000  0.10273700  1
  Mo  Mo10  1  1.83392000  3.53791000  1.81138000  1
  Mo  Mo11  1  0.08100790  5.49125000  1.91907000  1
  Mo  Mo12  1  3.59120000  3.70145000  3.67928000  1
  Mo  Mo13  1  5.40261000  5.53130000  3.61002000  1
  Mo  Mo14  1  5.47722000  3.65379000  1.75028000  1
  Mo  Mo15  1  3.55250000  5.47024000  1.90475000  1
