# generated using pymatgen
data_Mo
_symmetry_space_group_name_H-M   'P 1'
_cell_length_a   7.28968789
_cell_length_b   7.28968789
_cell_length_c   3.64484406
_cell_angle_alpha   90.00000000
_cell_angle_beta   90.00000000
_cell_angle_gamma   90.00000000
_symmetry_Int_Tables_number   1
_chemical_formula_structural   Mo
_chemical_formula_sum   Mo16
_cell_volume   193.68537117
_cell_formula_units_Z   16
loop_
 _symmetry_equiv_pos_site_id
 _symmetry_equiv_pos_as_xyz
  1  'x, y, z'
loop_
 _atom_site_type_symbol
 _atom_site_label
 _atom_site_symmetry_multiplicity
 _atom_site_fract_x
 _atom_site_fract_y
 _atom_site_fract_z
 _atom_site_occupancy
  Mo  Mo0  1  -0.01732020  7.27932000  3.58679000  1
  Mo  Mo1  1  1.75097000  1.77826000  3.74454000  1
  Mo  Mo2  1  1.84370000  0.12548800  1.84441000  1
  Mo  Mo3  1  -0.02941430  1.80439000  1.89165000  1
  Mo  Mo4  1  3.60580000  7.29034000  -0.03676290  1
  Mo  Mo5  1  5.39764000  1.79791000  0.00773914  1
  Mo  Mo6  1  5.52258000  0.01193700  1.80752000  1
  Mo  Mo7  1  3.70206000  1.76722000  1.82199000  1
  Mo  Mo8  1  7.16101000  3.63961000  3.72068000  1
  Mo  Mo9  1  1.82695000  5.51456000  -0.06917120  1
  Mo  Mo10  1  1.93435000  3.66106000  1.76885000  1
  Mo  Mo11  1  0.01781190  5.50465000  1.75272000  1
  Mo  Mo12  1  3.68981000  3.66847000  3.66742000  1
  Mo  Mo13  1  5.42287000  5.40841000  3.62409000  1
  Mo  Mo14  1  5.36742000  3.53338000  1.86345000  1
  Mo  Mo15  1  3.73806000  5.43900000  1.76095000  1
