# generated using pymatgen
data_Mo
_symmetry_space_group_name_H-M   'P 1'
_cell_length_a   7.28968789
_cell_length_b   7.28968789
_cell_length_c   3.64484406
_cell_angle_alpha   90.00000000
_cell_angle_beta   90.00000000
_cell_angle_gamma   90.00000000
_symmetry_Int_Tables_number   1
_chemical_formula_structural   Mo
_chemical_formula_sum   Mo16
_cell_volume   193.68537117
_cell_formula_units_Z   16
loop_
 _symmetry_equiv_pos_site_id
 _symmetry_equiv_pos_as_xyz
  1  'x, y, z'
loop_
 _atom_site_type_symbol
 _atom_site_label
 _atom_site_symmetry_multiplicity
 _atom_site_fract_x
 _atom_site_fract_y
 _atom_site_fract_z
 _atom_site_occupancy
  Mo  Mo0  1  0.17426800  7.22788000  3.55862000  1
  Mo  Mo1  1  1.93354000  1.90423000  3.64923000  1
  Mo  Mo2  1  1.80842000  0.14011800  1.79933000  1
  Mo  Mo3  1  0.08426920  1.74304000  1.82161000  1
  Mo  Mo4  1  3.53632000  7.26171000  -0.02666340  1
  Mo  Mo5  1  5.47023000  1.74230000  0.05028200  1
  Mo  Mo6  1  5.47013000  0.01001410  1.87729000  1
  Mo  Mo7  1  3.53087000  1.83392000  1.81996000  1
  Mo  Mo8  1  7.30411000  3.57481000  3.57841000  1
  Mo  Mo9  1  1.82461000  5.46337000  0.04506650  1
  Mo  Mo10  1  1.76002000  3.64777000  1.86738000  1
  Mo  Mo11  1  -0.13210100  5.37050000  1.83173000  1
  Mo  Mo12  1  3.58803000  3.71793000  3.61843000  1
  Mo  Mo13  1  5.49020000  5.45386000  3.66118000  1
  Mo  Mo14  1  5.52440000  3.55139000  1.79768000  1
  Mo  Mo15  1  3.56699000  5.58116000  1.80732000  1
