# generated using pymatgen
data_Mo
_symmetry_space_group_name_H-M   'P 1'
_cell_length_a   7.27806742
_cell_length_b   7.27806742
_cell_length_c   3.63903379
_cell_angle_alpha   90.00000000
_cell_angle_beta   90.00000000
_cell_angle_gamma   90.00000000
_symmetry_Int_Tables_number   1
_chemical_formula_structural   Mo
_chemical_formula_sum   Mo16
_cell_volume   192.76058556
_cell_formula_units_Z   16
loop_
 _symmetry_equiv_pos_site_id
 _symmetry_equiv_pos_as_xyz
  1  'x, y, z'
loop_
 _atom_site_type_symbol
 _atom_site_label
 _atom_site_symmetry_multiplicity
 _atom_site_fract_x
 _atom_site_fract_y
 _atom_site_fract_z
 _atom_site_occupancy
  Mo  Mo0  1  0.01312290  7.28153000  3.64331000  1
  Mo  Mo1  1  1.82865000  1.81745000  -0.01211610  1
  Mo  Mo2  1  1.82805000  7.27343000  1.81565000  1
  Mo  Mo3  1  7.27784000  1.80871000  1.80636000  1
  Mo  Mo4  1  3.61879000  7.29232000  0.01845730  1
  Mo  Mo5  1  5.46275000  1.80739000  0.04606640  1
  Mo  Mo6  1  5.43408000  -0.01057800  1.83305000  1
  Mo  Mo7  1  3.66033000  1.83368000  1.84409000  1
  Mo  Mo8  1  7.28358000  3.64087000  3.62295000  1
  Mo  Mo9  1  1.81682000  5.45232000  3.64329000  1
  Mo  Mo10  1  1.82583000  3.64755000  1.82374000  1
  Mo  Mo11  1  -0.02637020  5.45076000  1.79290000  1
  Mo  Mo12  1  3.63767000  3.64828000  3.62687000  1
  Mo  Mo13  1  5.48632000  5.46188000  3.63490000  1
  Mo  Mo14  1  5.42779000  3.65128000  1.79777000  1
  Mo  Mo15  1  3.64875000  5.44520000  1.81374000  1
