# generated using pymatgen
data_Mo
_symmetry_space_group_name_H-M   'P 1'
_cell_length_a   7.28968789
_cell_length_b   7.28968789
_cell_length_c   3.64484406
_cell_angle_alpha   90.00000000
_cell_angle_beta   90.00000000
_cell_angle_gamma   90.00000000
_symmetry_Int_Tables_number   1
_chemical_formula_structural   Mo
_chemical_formula_sum   Mo16
_cell_volume   193.68537117
_cell_formula_units_Z   16
loop_
 _symmetry_equiv_pos_site_id
 _symmetry_equiv_pos_as_xyz
  1  'x, y, z'
loop_
 _atom_site_type_symbol
 _atom_site_label
 _atom_site_symmetry_multiplicity
 _atom_site_fract_x
 _atom_site_fract_y
 _atom_site_fract_z
 _atom_site_occupancy
  Mo  Mo0  1  -0.05332300  7.03321000  3.68295000  1
  Mo  Mo1  1  1.74021000  1.81659000  3.51604000  1
  Mo  Mo2  1  1.74954000  0.00344711  1.83540000  1
  Mo  Mo3  1  0.02035180  1.83839000  1.70963000  1
  Mo  Mo4  1  3.60315000  7.40005000  0.01492850  1
  Mo  Mo5  1  5.51924000  1.81168000  0.03210550  1
  Mo  Mo6  1  5.34668000  0.09148000  1.82455000  1
  Mo  Mo7  1  3.63763000  1.91457000  1.85358000  1
  Mo  Mo8  1  7.34931000  3.69698000  3.68888000  1
  Mo  Mo9  1  1.83789000  5.47965000  -0.05003510  1
  Mo  Mo10  1  1.87276000  3.64632000  1.68565000  1
  Mo  Mo11  1  0.02897340  5.37626000  1.79249000  1
  Mo  Mo12  1  3.69978000  3.55679000  3.65802000  1
  Mo  Mo13  1  5.36586000  5.56666000  3.76400000  1
  Mo  Mo14  1  5.53527000  3.62520000  1.92554000  1
  Mo  Mo15  1  3.68099000  5.36672000  1.82313000  1
