# generated using pymatgen
data_Mo
_symmetry_space_group_name_H-M   'P 1'
_cell_length_a   7.28968789
_cell_length_b   7.28968789
_cell_length_c   3.64484406
_cell_angle_alpha   90.00000000
_cell_angle_beta   90.00000000
_cell_angle_gamma   90.00000000
_symmetry_Int_Tables_number   1
_chemical_formula_structural   Mo
_chemical_formula_sum   Mo16
_cell_volume   193.68537117
_cell_formula_units_Z   16
loop_
 _symmetry_equiv_pos_site_id
 _symmetry_equiv_pos_as_xyz
  1  'x, y, z'
loop_
 _atom_site_type_symbol
 _atom_site_label
 _atom_site_symmetry_multiplicity
 _atom_site_fract_x
 _atom_site_fract_y
 _atom_site_fract_z
 _atom_site_occupancy
  Mo  Mo0  1  -0.06776400  7.31490000  3.67194000  1
  Mo  Mo1  1  1.84473000  1.87097000  3.68320000  1
  Mo  Mo2  1  1.79997000  0.03209570  1.87601000  1
  Mo  Mo3  1  -0.04647220  1.75602000  1.87254000  1
  Mo  Mo4  1  3.86773000  7.33070000  -0.05266540  1
  Mo  Mo5  1  5.56684000  1.83272000  -0.01106580  1
  Mo  Mo6  1  5.46576000  0.01068500  1.78888000  1
  Mo  Mo7  1  3.69287000  1.83465000  1.75501000  1
  Mo  Mo8  1  7.29761000  3.57149000  3.63806000  1
  Mo  Mo9  1  1.71295000  5.48197000  0.01543440  1
  Mo  Mo10  1  1.79795000  3.76553000  1.78509000  1
  Mo  Mo11  1  -0.17577800  5.44962000  1.73331000  1
  Mo  Mo12  1  3.66712000  3.54360000  3.64704000  1
  Mo  Mo13  1  5.44341000  5.44271000  3.72094000  1
  Mo  Mo14  1  5.46210000  3.53022000  1.84519000  1
  Mo  Mo15  1  3.60529000  5.45611000  1.78794000  1
