# generated using pymatgen
data_Mo
_symmetry_space_group_name_H-M   'P 1'
_cell_length_a   7.28968789
_cell_length_b   7.28968789
_cell_length_c   3.64484406
_cell_angle_alpha   90.00000000
_cell_angle_beta   90.00000000
_cell_angle_gamma   90.00000000
_symmetry_Int_Tables_number   1
_chemical_formula_structural   Mo
_chemical_formula_sum   Mo16
_cell_volume   193.68537117
_cell_formula_units_Z   16
loop_
 _symmetry_equiv_pos_site_id
 _symmetry_equiv_pos_as_xyz
  1  'x, y, z'
loop_
 _atom_site_type_symbol
 _atom_site_label
 _atom_site_symmetry_multiplicity
 _atom_site_fract_x
 _atom_site_fract_y
 _atom_site_fract_z
 _atom_site_occupancy
  Mo  Mo0  1  -0.10114100  7.26881000  3.65400000  1
  Mo  Mo1  1  1.84189000  1.80548000  3.59661000  1
  Mo  Mo2  1  1.77801000  -0.05495610  1.82168000  1
  Mo  Mo3  1  0.08283380  1.79372000  1.78358000  1
  Mo  Mo4  1  3.67622000  7.38590000  0.02941850  1
  Mo  Mo5  1  5.51526000  1.76333000  -0.06525090  1
  Mo  Mo6  1  5.53359000  0.07330240  1.80611000  1
  Mo  Mo7  1  3.79667000  1.86233000  1.73451000  1
  Mo  Mo8  1  7.25933000  3.60198000  3.68126000  1
  Mo  Mo9  1  1.73327000  5.47855000  0.02336430  1
  Mo  Mo10  1  1.74202000  3.57250000  1.78976000  1
  Mo  Mo11  1  -0.12206700  5.47796000  1.94351000  1
  Mo  Mo12  1  3.58573000  3.65725000  3.62163000  1
  Mo  Mo13  1  5.39314000  5.45785000  3.61975000  1
  Mo  Mo14  1  5.47521000  3.57480000  1.81887000  1
  Mo  Mo15  1  3.74432000  5.50519000  1.89802000  1
