# generated using pymatgen
data_Mo
_symmetry_space_group_name_H-M   'P 1'
_cell_length_a   7.28968789
_cell_length_b   7.28968789
_cell_length_c   3.64484406
_cell_angle_alpha   90.00000000
_cell_angle_beta   90.00000000
_cell_angle_gamma   90.00000000
_symmetry_Int_Tables_number   1
_chemical_formula_structural   Mo
_chemical_formula_sum   Mo16
_cell_volume   193.68537117
_cell_formula_units_Z   16
loop_
 _symmetry_equiv_pos_site_id
 _symmetry_equiv_pos_as_xyz
  1  'x, y, z'
loop_
 _atom_site_type_symbol
 _atom_site_label
 _atom_site_symmetry_multiplicity
 _atom_site_fract_x
 _atom_site_fract_y
 _atom_site_fract_z
 _atom_site_occupancy
  Mo  Mo0  1  -0.01151590  7.32858000  3.64029000  1
  Mo  Mo1  1  1.81462000  1.84999000  3.67018000  1
  Mo  Mo2  1  1.85212000  -0.10872600  1.87321000  1
  Mo  Mo3  1  0.07318750  1.68546000  1.81799000  1
  Mo  Mo4  1  3.60646000  7.33558000  -0.01458620  1
  Mo  Mo5  1  5.36689000  1.92134000  -0.11727500  1
  Mo  Mo6  1  5.44623000  -0.05668070  1.70847000  1
  Mo  Mo7  1  3.61020000  1.81787000  1.78623000  1
  Mo  Mo8  1  7.34512000  3.50059000  3.71206000  1
  Mo  Mo9  1  1.65401000  5.49092000  0.08603440  1
  Mo  Mo10  1  1.84142000  3.70187000  1.91728000  1
  Mo  Mo11  1  0.00803895  5.58803000  1.80058000  1
  Mo  Mo12  1  3.63478000  3.66158000  3.68879000  1
  Mo  Mo13  1  5.47689000  5.39389000  3.55729000  1
  Mo  Mo14  1  5.49679000  3.63421000  1.78813000  1
  Mo  Mo15  1  3.71907000  5.47949000  1.84218000  1
