# generated using pymatgen
data_Mo
_symmetry_space_group_name_H-M   'P 1'
_cell_length_a   7.28968789
_cell_length_b   7.28968789
_cell_length_c   3.64484406
_cell_angle_alpha   90.00000000
_cell_angle_beta   90.00000000
_cell_angle_gamma   90.00000000
_symmetry_Int_Tables_number   1
_chemical_formula_structural   Mo
_chemical_formula_sum   Mo16
_cell_volume   193.68537117
_cell_formula_units_Z   16
loop_
 _symmetry_equiv_pos_site_id
 _symmetry_equiv_pos_as_xyz
  1  'x, y, z'
loop_
 _atom_site_type_symbol
 _atom_site_label
 _atom_site_symmetry_multiplicity
 _atom_site_fract_x
 _atom_site_fract_y
 _atom_site_fract_z
 _atom_site_occupancy
  Mo  Mo0  1  0.10581200  7.38513000  3.65785000  1
  Mo  Mo1  1  1.85213000  1.79236000  3.61987000  1
  Mo  Mo2  1  1.80896000  0.03018460  1.73954000  1
  Mo  Mo3  1  -0.01666930  1.83130000  1.84892000  1
  Mo  Mo4  1  3.66740000  7.19246000  -0.04316580  1
  Mo  Mo5  1  5.45835000  1.78127000  0.14770300  1
  Mo  Mo6  1  5.52383000  0.08484040  1.91563000  1
  Mo  Mo7  1  3.62975000  1.79056000  1.87413000  1
  Mo  Mo8  1  7.21761000  3.67529000  3.61799000  1
  Mo  Mo9  1  1.88214000  5.41480000  -0.10953800  1
  Mo  Mo10  1  1.62431000  3.63284000  1.76569000  1
  Mo  Mo11  1  -0.04640010  5.56685000  1.82729000  1
  Mo  Mo12  1  3.50362000  3.57046000  3.62761000  1
  Mo  Mo13  1  5.53357000  5.46184000  3.64889000  1
  Mo  Mo14  1  5.53256000  3.61233000  1.82214000  1
  Mo  Mo15  1  3.65735000  5.40147000  1.79630000  1
