# generated using pymatgen
data_Mo
_symmetry_space_group_name_H-M   'P 1'
_cell_length_a   7.28968789
_cell_length_b   7.28968789
_cell_length_c   3.64484406
_cell_angle_alpha   90.00000000
_cell_angle_beta   90.00000000
_cell_angle_gamma   90.00000000
_symmetry_Int_Tables_number   1
_chemical_formula_structural   Mo
_chemical_formula_sum   Mo16
_cell_volume   193.68537117
_cell_formula_units_Z   16
loop_
 _symmetry_equiv_pos_site_id
 _symmetry_equiv_pos_as_xyz
  1  'x, y, z'
loop_
 _atom_site_type_symbol
 _atom_site_label
 _atom_site_symmetry_multiplicity
 _atom_site_fract_x
 _atom_site_fract_y
 _atom_site_fract_z
 _atom_site_occupancy
  Mo  Mo0  1  -0.03614420  7.22849000  3.57845000  1
  Mo  Mo1  1  1.78556000  1.90436000  3.65120000  1
  Mo  Mo2  1  1.88405000  0.06012800  1.81812000  1
  Mo  Mo3  1  0.04752730  1.82323000  1.75587000  1
  Mo  Mo4  1  3.54039000  7.20468000  -0.04297250  1
  Mo  Mo5  1  5.34834000  1.70544000  0.02568430  1
  Mo  Mo6  1  5.50067000  0.05922630  1.76064000  1
  Mo  Mo7  1  3.60845000  1.78888000  1.86720000  1
  Mo  Mo8  1  7.11936000  3.64968000  3.66179000  1
  Mo  Mo9  1  1.80056000  5.44806000  0.02156670  1
  Mo  Mo10  1  1.94090000  3.71529000  1.93595000  1
  Mo  Mo11  1  -0.00768330  5.50329000  1.82547000  1
  Mo  Mo12  1  3.80831000  3.60639000  3.67693000  1
  Mo  Mo13  1  5.37384000  5.46425000  3.59819000  1
  Mo  Mo14  1  5.54561000  3.60789000  1.89537000  1
  Mo  Mo15  1  3.67456000  5.45469000  1.72738000  1
