# generated using pymatgen
data_Mo
_symmetry_space_group_name_H-M   'P 1'
_cell_length_a   7.28968789
_cell_length_b   7.28968789
_cell_length_c   3.64484406
_cell_angle_alpha   90.00000000
_cell_angle_beta   90.00000000
_cell_angle_gamma   90.00000000
_symmetry_Int_Tables_number   1
_chemical_formula_structural   Mo
_chemical_formula_sum   Mo16
_cell_volume   193.68537117
_cell_formula_units_Z   16
loop_
 _symmetry_equiv_pos_site_id
 _symmetry_equiv_pos_as_xyz
  1  'x, y, z'
loop_
 _atom_site_type_symbol
 _atom_site_label
 _atom_site_symmetry_multiplicity
 _atom_site_fract_x
 _atom_site_fract_y
 _atom_site_fract_z
 _atom_site_occupancy
  Mo  Mo0  1  0.00243798  7.16424000  3.63103000  1
  Mo  Mo1  1  1.79875000  1.84344000  3.56252000  1
  Mo  Mo2  1  1.81550000  -0.02087220  1.82957000  1
  Mo  Mo3  1  -0.06212440  1.79655000  1.80887000  1
  Mo  Mo4  1  3.69429000  7.30311000  -0.02233490  1
  Mo  Mo5  1  5.59563000  1.72249000  0.04339380  1
  Mo  Mo6  1  5.36094000  0.01694690  1.90239000  1
  Mo  Mo7  1  3.78641000  1.88517000  1.88500000  1
  Mo  Mo8  1  7.17016000  3.69797000  3.74780000  1
  Mo  Mo9  1  1.75086000  5.43702000  -0.06492580  1
  Mo  Mo10  1  1.86461000  3.58256000  1.70685000  1
  Mo  Mo11  1  -0.05315180  5.36699000  1.83701000  1
  Mo  Mo12  1  3.61011000  3.82795000  3.60996000  1
  Mo  Mo13  1  5.47643000  5.53165000  3.64873000  1
  Mo  Mo14  1  5.44175000  3.56078000  1.86927000  1
  Mo  Mo15  1  3.68171000  5.50801000  1.76172000  1
