# generated using pymatgen
data_Mo
_symmetry_space_group_name_H-M   'P 1'
_cell_length_a   7.28968789
_cell_length_b   7.28968789
_cell_length_c   3.64484406
_cell_angle_alpha   90.00000000
_cell_angle_beta   90.00000000
_cell_angle_gamma   90.00000000
_symmetry_Int_Tables_number   1
_chemical_formula_structural   Mo
_chemical_formula_sum   Mo16
_cell_volume   193.68537117
_cell_formula_units_Z   16
loop_
 _symmetry_equiv_pos_site_id
 _symmetry_equiv_pos_as_xyz
  1  'x, y, z'
loop_
 _atom_site_type_symbol
 _atom_site_label
 _atom_site_symmetry_multiplicity
 _atom_site_fract_x
 _atom_site_fract_y
 _atom_site_fract_z
 _atom_site_occupancy
  Mo  Mo0  1  -0.08840190  7.28887000  3.56857000  1
  Mo  Mo1  1  1.69873000  1.66050000  3.58570000  1
  Mo  Mo2  1  1.82206000  -0.03148360  1.93092000  1
  Mo  Mo3  1  -0.04438060  1.88518000  1.71806000  1
  Mo  Mo4  1  3.64797000  7.27585000  0.05405600  1
  Mo  Mo5  1  5.40995000  1.94002000  -0.06986320  1
  Mo  Mo6  1  5.55584000  0.00597457  1.90693000  1
  Mo  Mo7  1  3.72245000  1.82319000  1.76703000  1
  Mo  Mo8  1  7.21124000  3.64917000  3.63771000  1
  Mo  Mo9  1  1.78837000  5.41093000  0.00445542  1
  Mo  Mo10  1  1.89919000  3.59232000  1.69763000  1
  Mo  Mo11  1  0.07224080  5.45166000  1.90255000  1
  Mo  Mo12  1  3.58553000  3.69289000  3.63316000  1
  Mo  Mo13  1  5.46556000  5.43681000  3.68856000  1
  Mo  Mo14  1  5.46031000  3.71173000  1.79853000  1
  Mo  Mo15  1  3.72765000  5.43039000  1.93284000  1
