# generated using pymatgen
data_Mo
_symmetry_space_group_name_H-M   'P 1'
_cell_length_a   7.27806742
_cell_length_b   7.27806742
_cell_length_c   3.63903379
_cell_angle_alpha   90.00000000
_cell_angle_beta   90.00000000
_cell_angle_gamma   90.00000000
_symmetry_Int_Tables_number   1
_chemical_formula_structural   Mo
_chemical_formula_sum   Mo16
_cell_volume   192.76058556
_cell_formula_units_Z   16
loop_
 _symmetry_equiv_pos_site_id
 _symmetry_equiv_pos_as_xyz
  1  'x, y, z'
loop_
 _atom_site_type_symbol
 _atom_site_label
 _atom_site_symmetry_multiplicity
 _atom_site_fract_x
 _atom_site_fract_y
 _atom_site_fract_z
 _atom_site_occupancy
  Mo  Mo0  1  0.00309726  7.27679000  3.64136000  1
  Mo  Mo1  1  1.81513000  1.82799000  0.00672617  1
  Mo  Mo2  1  1.83978000  7.26978000  1.81549000  1
  Mo  Mo3  1  7.27158000  1.82639000  1.80998000  1
  Mo  Mo4  1  3.61875000  7.28538000  0.01376130  1
  Mo  Mo5  1  5.44331000  1.80931000  -0.00720850  1
  Mo  Mo6  1  5.44668000  -0.00822563  1.83616000  1
  Mo  Mo7  1  3.64899000  1.83328000  1.82887000  1
  Mo  Mo8  1  7.28792000  3.61592000  3.66228000  1
  Mo  Mo9  1  1.80338000  5.45627000  3.61890000  1
  Mo  Mo10  1  1.83915000  3.64747000  1.82103000  1
  Mo  Mo11  1  -0.02310350  5.45612000  1.80799000  1
  Mo  Mo12  1  3.64451000  3.62360000  3.62651000  1
  Mo  Mo13  1  5.46506000  5.46741000  3.63002000  1
  Mo  Mo14  1  5.46417000  3.66393000  1.81848000  1
  Mo  Mo15  1  3.65559000  5.45066000  1.82069000  1
