# generated using pymatgen
data_Mo
_symmetry_space_group_name_H-M   'P 1'
_cell_length_a   7.28968789
_cell_length_b   7.28968789
_cell_length_c   3.64484406
_cell_angle_alpha   90.00000000
_cell_angle_beta   90.00000000
_cell_angle_gamma   90.00000000
_symmetry_Int_Tables_number   1
_chemical_formula_structural   Mo
_chemical_formula_sum   Mo16
_cell_volume   193.68537117
_cell_formula_units_Z   16
loop_
 _symmetry_equiv_pos_site_id
 _symmetry_equiv_pos_as_xyz
  1  'x, y, z'
loop_
 _atom_site_type_symbol
 _atom_site_label
 _atom_site_symmetry_multiplicity
 _atom_site_fract_x
 _atom_site_fract_y
 _atom_site_fract_z
 _atom_site_occupancy
  Mo  Mo0  1  0.02256750  7.36086000  3.67391000  1
  Mo  Mo1  1  1.75090000  1.87122000  3.60340000  1
  Mo  Mo2  1  1.96696000  0.00741708  1.87241000  1
  Mo  Mo3  1  -0.21971500  1.84348000  1.81992000  1
  Mo  Mo4  1  3.64672000  7.31752000  0.01572560  1
  Mo  Mo5  1  5.37232000  1.80985000  -0.13133400  1
  Mo  Mo6  1  5.50078000  -0.03917920  1.81075000  1
  Mo  Mo7  1  3.69842000  1.83436000  1.77299000  1
  Mo  Mo8  1  7.25594000  3.57179000  3.67014000  1
  Mo  Mo9  1  1.75034000  5.42857000  0.00309398  1
  Mo  Mo10  1  1.86213000  3.57173000  1.85476000  1
  Mo  Mo11  1  -0.06332580  5.45726000  1.79114000  1
  Mo  Mo12  1  3.79296000  3.66931000  3.67937000  1
  Mo  Mo13  1  5.49399000  5.44526000  3.57670000  1
  Mo  Mo14  1  5.44718000  3.61501000  1.76013000  1
  Mo  Mo15  1  3.65614000  5.45955000  1.98373000  1
