# generated using pymatgen
data_Mo
_symmetry_space_group_name_H-M   'P 1'
_cell_length_a   7.28968789
_cell_length_b   7.28968789
_cell_length_c   3.64484406
_cell_angle_alpha   90.00000000
_cell_angle_beta   90.00000000
_cell_angle_gamma   90.00000000
_symmetry_Int_Tables_number   1
_chemical_formula_structural   Mo
_chemical_formula_sum   Mo16
_cell_volume   193.68537117
_cell_formula_units_Z   16
loop_
 _symmetry_equiv_pos_site_id
 _symmetry_equiv_pos_as_xyz
  1  'x, y, z'
loop_
 _atom_site_type_symbol
 _atom_site_label
 _atom_site_symmetry_multiplicity
 _atom_site_fract_x
 _atom_site_fract_y
 _atom_site_fract_z
 _atom_site_occupancy
  Mo  Mo0  1  -0.10693000  7.26938000  3.72213000  1
  Mo  Mo1  1  1.80428000  1.88737000  3.67697000  1
  Mo  Mo2  1  1.80236000  -0.05982230  1.78737000  1
  Mo  Mo3  1  -0.07802160  1.78266000  1.88467000  1
  Mo  Mo4  1  3.61979000  7.28138000  0.04045590  1
  Mo  Mo5  1  5.37337000  1.82948000  0.07727690  1
  Mo  Mo6  1  5.52744000  -0.09687640  1.84078000  1
  Mo  Mo7  1  3.60325000  1.80833000  1.76015000  1
  Mo  Mo8  1  7.34958000  3.53532000  3.54905000  1
  Mo  Mo9  1  1.86310000  5.40917000  -0.07178130  1
  Mo  Mo10  1  1.74375000  3.77201000  1.74409000  1
  Mo  Mo11  1  -0.06667320  5.42758000  1.81915000  1
  Mo  Mo12  1  3.76295000  3.61826000  3.55614000  1
  Mo  Mo13  1  5.47609000  5.46307000  3.68546000  1
  Mo  Mo14  1  5.53649000  3.76817000  1.88471000  1
  Mo  Mo15  1  3.72349000  5.52852000  1.80022000  1
