# generated using pymatgen
data_Mo
_symmetry_space_group_name_H-M   'P 1'
_cell_length_a   7.28968789
_cell_length_b   7.28968789
_cell_length_c   3.64484406
_cell_angle_alpha   90.00000000
_cell_angle_beta   90.00000000
_cell_angle_gamma   90.00000000
_symmetry_Int_Tables_number   1
_chemical_formula_structural   Mo
_chemical_formula_sum   Mo16
_cell_volume   193.68537117
_cell_formula_units_Z   16
loop_
 _symmetry_equiv_pos_site_id
 _symmetry_equiv_pos_as_xyz
  1  'x, y, z'
loop_
 _atom_site_type_symbol
 _atom_site_label
 _atom_site_symmetry_multiplicity
 _atom_site_fract_x
 _atom_site_fract_y
 _atom_site_fract_z
 _atom_site_occupancy
  Mo  Mo0  1  0.01285270  7.31054000  3.59452000  1
  Mo  Mo1  1  1.81198000  1.76319000  3.66153000  1
  Mo  Mo2  1  1.71963000  0.13770800  1.73592000  1
  Mo  Mo3  1  -0.21854000  1.94309000  1.83062000  1
  Mo  Mo4  1  3.71889000  7.21949000  -0.01875460  1
  Mo  Mo5  1  5.38514000  1.76474000  0.09910780  1
  Mo  Mo6  1  5.62704000  0.01593480  1.93924000  1
  Mo  Mo7  1  3.54984000  1.68698000  1.87011000  1
  Mo  Mo8  1  7.32053000  3.73815000  3.61655000  1
  Mo  Mo9  1  1.90973000  5.55437000  -0.03300640  1
  Mo  Mo10  1  1.81352000  3.50426000  1.83678000  1
  Mo  Mo11  1  0.08261010  5.48464000  1.79102000  1
  Mo  Mo12  1  3.67204000  3.58472000  3.57109000  1
  Mo  Mo13  1  5.49294000  5.49660000  3.61397000  1
  Mo  Mo14  1  5.36838000  3.55720000  1.91584000  1
  Mo  Mo15  1  3.66773000  5.46241000  1.73230000  1
