# generated using pymatgen
data_Mo
_symmetry_space_group_name_H-M   'P 1'
_cell_length_a   7.28968789
_cell_length_b   7.28968789
_cell_length_c   3.64484406
_cell_angle_alpha   90.00000000
_cell_angle_beta   90.00000000
_cell_angle_gamma   90.00000000
_symmetry_Int_Tables_number   1
_chemical_formula_structural   Mo
_chemical_formula_sum   Mo16
_cell_volume   193.68537117
_cell_formula_units_Z   16
loop_
 _symmetry_equiv_pos_site_id
 _symmetry_equiv_pos_as_xyz
  1  'x, y, z'
loop_
 _atom_site_type_symbol
 _atom_site_label
 _atom_site_symmetry_multiplicity
 _atom_site_fract_x
 _atom_site_fract_y
 _atom_site_fract_z
 _atom_site_occupancy
  Mo  Mo0  1  -0.15112600  7.32446000  3.60976000  1
  Mo  Mo1  1  1.72626000  1.77417000  3.56475000  1
  Mo  Mo2  1  1.75905000  0.09081900  1.74715000  1
  Mo  Mo3  1  -0.02042450  1.72221000  1.77689000  1
  Mo  Mo4  1  3.58391000  7.25909000  -0.04156950  1
  Mo  Mo5  1  5.45893000  1.94323000  0.04505010  1
  Mo  Mo6  1  5.46990000  0.02873230  1.77820000  1
  Mo  Mo7  1  3.65406000  1.84527000  1.78902000  1
  Mo  Mo8  1  7.34343000  3.50373000  3.71938000  1
  Mo  Mo9  1  1.76953000  5.45112000  -0.00308870  1
  Mo  Mo10  1  1.89089000  3.56067000  1.70915000  1
  Mo  Mo11  1  0.04131640  5.46355000  1.81987000  1
  Mo  Mo12  1  3.67864000  3.70809000  3.65162000  1
  Mo  Mo13  1  5.47961000  5.32991000  3.76946000  1
  Mo  Mo14  1  5.62303000  3.64166000  1.95523000  1
  Mo  Mo15  1  3.62730000  5.57729000  1.86596000  1
