# generated using pymatgen
data_Mo
_symmetry_space_group_name_H-M   'P 1'
_cell_length_a   7.28968789
_cell_length_b   7.28968789
_cell_length_c   3.64484406
_cell_angle_alpha   90.00000000
_cell_angle_beta   90.00000000
_cell_angle_gamma   90.00000000
_symmetry_Int_Tables_number   1
_chemical_formula_structural   Mo
_chemical_formula_sum   Mo16
_cell_volume   193.68537117
_cell_formula_units_Z   16
loop_
 _symmetry_equiv_pos_site_id
 _symmetry_equiv_pos_as_xyz
  1  'x, y, z'
loop_
 _atom_site_type_symbol
 _atom_site_label
 _atom_site_symmetry_multiplicity
 _atom_site_fract_x
 _atom_site_fract_y
 _atom_site_fract_z
 _atom_site_occupancy
  Mo  Mo0  1  -0.15853400  7.29425000  3.66237000  1
  Mo  Mo1  1  1.81555000  1.84371000  3.66790000  1
  Mo  Mo2  1  1.81335000  0.02985410  1.77025000  1
  Mo  Mo3  1  0.00097976  1.89102000  1.88764000  1
  Mo  Mo4  1  3.68422000  7.30250000  -0.03099450  1
  Mo  Mo5  1  5.45075000  1.75702000  0.04615020  1
  Mo  Mo6  1  5.53752000  0.01186630  1.86170000  1
  Mo  Mo7  1  3.74918000  1.83653000  1.89169000  1
  Mo  Mo8  1  7.22618000  3.68264000  3.63294000  1
  Mo  Mo9  1  1.77256000  5.57853000  -0.14907600  1
  Mo  Mo10  1  1.77886000  3.65667000  1.80327000  1
  Mo  Mo11  1  -0.06722110  5.48427000  1.84599000  1
  Mo  Mo12  1  3.63685000  3.65416000  3.67161000  1
  Mo  Mo13  1  5.44150000  5.32150000  3.54261000  1
  Mo  Mo14  1  5.50153000  3.48206000  1.86383000  1
  Mo  Mo15  1  3.75103000  5.39744000  1.78896000  1
