# generated using pymatgen
data_Mo
_symmetry_space_group_name_H-M   'P 1'
_cell_length_a   7.28968789
_cell_length_b   7.28968789
_cell_length_c   3.64484406
_cell_angle_alpha   90.00000000
_cell_angle_beta   90.00000000
_cell_angle_gamma   90.00000000
_symmetry_Int_Tables_number   1
_chemical_formula_structural   Mo
_chemical_formula_sum   Mo16
_cell_volume   193.68537117
_cell_formula_units_Z   16
loop_
 _symmetry_equiv_pos_site_id
 _symmetry_equiv_pos_as_xyz
  1  'x, y, z'
loop_
 _atom_site_type_symbol
 _atom_site_label
 _atom_site_symmetry_multiplicity
 _atom_site_fract_x
 _atom_site_fract_y
 _atom_site_fract_z
 _atom_site_occupancy
  Mo  Mo0  1  -0.01718530  7.24703000  3.75131000  1
  Mo  Mo1  1  1.84920000  1.90870000  3.57458000  1
  Mo  Mo2  1  1.81459000  0.15677500  1.82744000  1
  Mo  Mo3  1  0.03470780  1.85900000  1.73543000  1
  Mo  Mo4  1  3.61525000  7.25577000  0.02532130  1
  Mo  Mo5  1  5.38923000  1.78156000  -0.14327300  1
  Mo  Mo6  1  5.36104000  -0.01295280  1.82473000  1
  Mo  Mo7  1  3.61113000  1.78838000  1.70419000  1
  Mo  Mo8  1  7.29060000  3.66912000  3.59770000  1
  Mo  Mo9  1  1.76899000  5.51252000  0.14924100  1
  Mo  Mo10  1  1.87352000  3.60604000  1.87533000  1
  Mo  Mo11  1  -0.00806167  5.43099000  1.87747000  1
  Mo  Mo12  1  3.65913000  3.62485000  3.55475000  1
  Mo  Mo13  1  5.44722000  5.36541000  3.71156000  1
  Mo  Mo14  1  5.61764000  3.61395000  1.85715000  1
  Mo  Mo15  1  3.62730000  5.41684000  1.83391000  1
