# generated using pymatgen
data_Mo
_symmetry_space_group_name_H-M   'P 1'
_cell_length_a   7.28968789
_cell_length_b   7.28968789
_cell_length_c   3.64484406
_cell_angle_alpha   90.00000000
_cell_angle_beta   90.00000000
_cell_angle_gamma   90.00000000
_symmetry_Int_Tables_number   1
_chemical_formula_structural   Mo
_chemical_formula_sum   Mo16
_cell_volume   193.68537117
_cell_formula_units_Z   16
loop_
 _symmetry_equiv_pos_site_id
 _symmetry_equiv_pos_as_xyz
  1  'x, y, z'
loop_
 _atom_site_type_symbol
 _atom_site_label
 _atom_site_symmetry_multiplicity
 _atom_site_fract_x
 _atom_site_fract_y
 _atom_site_fract_z
 _atom_site_occupancy
  Mo  Mo0  1  -0.00597308  7.21491000  3.72590000  1
  Mo  Mo1  1  1.81897000  1.81141000  3.62255000  1
  Mo  Mo2  1  1.88841000  -0.01451110  1.79297000  1
  Mo  Mo3  1  0.01737240  1.73410000  1.76246000  1
  Mo  Mo4  1  3.72668000  7.23058000  0.07363410  1
  Mo  Mo5  1  5.39647000  1.84743000  0.00522900  1
  Mo  Mo6  1  5.49738000  0.12345300  1.86434000  1
  Mo  Mo7  1  3.71439000  1.86018000  1.77834000  1
  Mo  Mo8  1  7.17129000  3.60673000  3.59622000  1
  Mo  Mo9  1  1.78848000  5.44545000  0.03530080  1
  Mo  Mo10  1  1.89196000  3.61472000  1.77407000  1
  Mo  Mo11  1  0.00347512  5.50161000  1.78609000  1
  Mo  Mo12  1  3.62964000  3.69537000  3.57493000  1
  Mo  Mo13  1  5.33210000  5.47761000  3.70999000  1
  Mo  Mo14  1  5.46428000  3.64814000  1.89682000  1
  Mo  Mo15  1  3.59940000  5.42683000  1.75800000  1
