# generated using pymatgen
data_Mo
_symmetry_space_group_name_H-M   'P 1'
_cell_length_a   7.28968789
_cell_length_b   7.28968789
_cell_length_c   3.64484406
_cell_angle_alpha   90.00000000
_cell_angle_beta   90.00000000
_cell_angle_gamma   90.00000000
_symmetry_Int_Tables_number   1
_chemical_formula_structural   Mo
_chemical_formula_sum   Mo16
_cell_volume   193.68537117
_cell_formula_units_Z   16
loop_
 _symmetry_equiv_pos_site_id
 _symmetry_equiv_pos_as_xyz
  1  'x, y, z'
loop_
 _atom_site_type_symbol
 _atom_site_label
 _atom_site_symmetry_multiplicity
 _atom_site_fract_x
 _atom_site_fract_y
 _atom_site_fract_z
 _atom_site_occupancy
  Mo  Mo0  1  -0.07521450  7.27368000  3.70603000  1
  Mo  Mo1  1  1.89509000  1.90549000  3.57548000  1
  Mo  Mo2  1  1.78782000  -0.18849400  1.83807000  1
  Mo  Mo3  1  0.04281880  1.77486000  1.82166000  1
  Mo  Mo4  1  3.57527000  7.28025000  -0.01865280  1
  Mo  Mo5  1  5.32333000  1.97545000  -0.03853990  1
  Mo  Mo6  1  5.42808000  -0.05095950  1.84625000  1
  Mo  Mo7  1  3.67434000  1.76891000  1.81980000  1
  Mo  Mo8  1  7.37291000  3.50477000  3.70662000  1
  Mo  Mo9  1  1.72808000  5.36542000  -0.03324850  1
  Mo  Mo10  1  1.92405000  3.77004000  1.75456000  1
  Mo  Mo11  1  -0.02327070  5.44255000  1.84366000  1
  Mo  Mo12  1  3.66760000  3.74508000  3.62178000  1
  Mo  Mo13  1  5.39173000  5.38507000  3.67355000  1
  Mo  Mo14  1  5.51723000  3.69772000  1.84346000  1
  Mo  Mo15  1  3.70445000  5.57418000  1.79638000  1
