# generated using pymatgen
data_Mo
_symmetry_space_group_name_H-M   'P 1'
_cell_length_a   7.28968789
_cell_length_b   7.28968789
_cell_length_c   3.64484406
_cell_angle_alpha   90.00000000
_cell_angle_beta   90.00000000
_cell_angle_gamma   90.00000000
_symmetry_Int_Tables_number   1
_chemical_formula_structural   Mo
_chemical_formula_sum   Mo16
_cell_volume   193.68537117
_cell_formula_units_Z   16
loop_
 _symmetry_equiv_pos_site_id
 _symmetry_equiv_pos_as_xyz
  1  'x, y, z'
loop_
 _atom_site_type_symbol
 _atom_site_label
 _atom_site_symmetry_multiplicity
 _atom_site_fract_x
 _atom_site_fract_y
 _atom_site_fract_z
 _atom_site_occupancy
  Mo  Mo0  1  0.05465480  7.27270000  3.62114000  1
  Mo  Mo1  1  1.81418000  1.90118000  3.67919000  1
  Mo  Mo2  1  1.86224000  0.06005970  1.95268000  1
  Mo  Mo3  1  0.02401080  1.83970000  1.82102000  1
  Mo  Mo4  1  3.69265000  7.21044000  -0.03511830  1
  Mo  Mo5  1  5.42359000  1.85608000  -0.08538870  1
  Mo  Mo6  1  5.54478000  0.05338710  1.70872000  1
  Mo  Mo7  1  3.62341000  1.63012000  1.91238000  1
  Mo  Mo8  1  7.18075000  3.60793000  3.69141000  1
  Mo  Mo9  1  1.68534000  5.49756000  0.00189733  1
  Mo  Mo10  1  1.81332000  3.67213000  1.84675000  1
  Mo  Mo11  1  -0.02973270  5.58015000  1.74706000  1
  Mo  Mo12  1  3.61106000  3.58231000  3.65075000  1
  Mo  Mo13  1  5.52007000  5.41447000  3.56411000  1
  Mo  Mo14  1  5.38633000  3.53150000  1.82836000  1
  Mo  Mo15  1  3.72764000  5.51428000  1.85188000  1
