# generated using pymatgen
data_Mo
_symmetry_space_group_name_H-M   'P 1'
_cell_length_a   7.28968789
_cell_length_b   7.28968789
_cell_length_c   3.64484406
_cell_angle_alpha   90.00000000
_cell_angle_beta   90.00000000
_cell_angle_gamma   90.00000000
_symmetry_Int_Tables_number   1
_chemical_formula_structural   Mo
_chemical_formula_sum   Mo16
_cell_volume   193.68537117
_cell_formula_units_Z   16
loop_
 _symmetry_equiv_pos_site_id
 _symmetry_equiv_pos_as_xyz
  1  'x, y, z'
loop_
 _atom_site_type_symbol
 _atom_site_label
 _atom_site_symmetry_multiplicity
 _atom_site_fract_x
 _atom_site_fract_y
 _atom_site_fract_z
 _atom_site_occupancy
  Mo  Mo0  1  -0.00174800  7.33022000  3.70094000  1
  Mo  Mo1  1  1.93225000  1.87758000  3.69686000  1
  Mo  Mo2  1  1.77216000  0.03423010  1.84634000  1
  Mo  Mo3  1  -0.07351100  1.79122000  1.91566000  1
  Mo  Mo4  1  3.72761000  7.32993000  0.03860380  1
  Mo  Mo5  1  5.50620000  1.77372000  0.07894160  1
  Mo  Mo6  1  5.45538000  -0.06579550  1.72891000  1
  Mo  Mo7  1  3.67319000  1.81311000  1.90671000  1
  Mo  Mo8  1  7.26062000  3.61557000  3.65326000  1
  Mo  Mo9  1  1.87043000  5.55567000  -0.02169840  1
  Mo  Mo10  1  1.80157000  3.64080000  1.88047000  1
  Mo  Mo11  1  -0.12510100  5.44057000  1.78764000  1
  Mo  Mo12  1  3.70968000  3.55875000  3.55049000  1
  Mo  Mo13  1  5.43837000  5.38699000  3.51501000  1
  Mo  Mo14  1  5.39663000  3.64342000  1.79614000  1
  Mo  Mo15  1  3.59058000  5.49802000  1.68256000  1
