# generated using pymatgen
data_Mo
_symmetry_space_group_name_H-M   'P 1'
_cell_length_a   7.28968789
_cell_length_b   7.28968789
_cell_length_c   3.64484406
_cell_angle_alpha   90.00000000
_cell_angle_beta   90.00000000
_cell_angle_gamma   90.00000000
_symmetry_Int_Tables_number   1
_chemical_formula_structural   Mo
_chemical_formula_sum   Mo16
_cell_volume   193.68537117
_cell_formula_units_Z   16
loop_
 _symmetry_equiv_pos_site_id
 _symmetry_equiv_pos_as_xyz
  1  'x, y, z'
loop_
 _atom_site_type_symbol
 _atom_site_label
 _atom_site_symmetry_multiplicity
 _atom_site_fract_x
 _atom_site_fract_y
 _atom_site_fract_z
 _atom_site_occupancy
  Mo  Mo0  1  0.03991150  7.28611000  3.62485000  1
  Mo  Mo1  1  1.75947000  1.84452000  3.73051000  1
  Mo  Mo2  1  2.01018000  0.00083874  1.94337000  1
  Mo  Mo3  1  0.05107680  1.75119000  1.84702000  1
  Mo  Mo4  1  3.70105000  7.19717000  0.04895830  1
  Mo  Mo5  1  5.48956000  1.89225000  -0.05891830  1
  Mo  Mo6  1  5.51025000  -0.03615590  1.75550000  1
  Mo  Mo7  1  3.58713000  1.72562000  1.82113000  1
  Mo  Mo8  1  7.23710000  3.78412000  3.54746000  1
  Mo  Mo9  1  1.89621000  5.40622000  0.03529820  1
  Mo  Mo10  1  1.79001000  3.65680000  1.80348000  1
  Mo  Mo11  1  -0.01983980  5.61595000  1.84026000  1
  Mo  Mo12  1  3.51670000  3.65515000  3.61576000  1
  Mo  Mo13  1  5.42044000  5.31446000  3.55878000  1
  Mo  Mo14  1  5.36115000  3.64413000  1.80880000  1
  Mo  Mo15  1  3.58392000  5.48564000  1.83458000  1
