# generated using pymatgen
data_Mo
_symmetry_space_group_name_H-M   'P 1'
_cell_length_a   7.28968789
_cell_length_b   7.28968789
_cell_length_c   3.64484406
_cell_angle_alpha   90.00000000
_cell_angle_beta   90.00000000
_cell_angle_gamma   90.00000000
_symmetry_Int_Tables_number   1
_chemical_formula_structural   Mo
_chemical_formula_sum   Mo16
_cell_volume   193.68537117
_cell_formula_units_Z   16
loop_
 _symmetry_equiv_pos_site_id
 _symmetry_equiv_pos_as_xyz
  1  'x, y, z'
loop_
 _atom_site_type_symbol
 _atom_site_label
 _atom_site_symmetry_multiplicity
 _atom_site_fract_x
 _atom_site_fract_y
 _atom_site_fract_z
 _atom_site_occupancy
  Mo  Mo0  1  -0.09916830  7.10530000  3.68164000  1
  Mo  Mo1  1  1.78199000  1.77859000  3.58819000  1
  Mo  Mo2  1  1.79871000  0.02865230  1.84379000  1
  Mo  Mo3  1  0.09749520  1.85060000  1.83013000  1
  Mo  Mo4  1  3.63159000  7.22132000  0.07316080  1
  Mo  Mo5  1  5.45953000  1.83166000  0.00575796  1
  Mo  Mo6  1  5.51425000  0.03919500  1.79492000  1
  Mo  Mo7  1  3.64739000  1.93342000  1.83212000  1
  Mo  Mo8  1  7.32931000  3.72152000  3.56195000  1
  Mo  Mo9  1  1.85296000  5.53508000  -0.04561970  1
  Mo  Mo10  1  1.80748000  3.64872000  1.73438000  1
  Mo  Mo11  1  -0.00091747  5.37225000  1.81178000  1
  Mo  Mo12  1  3.62130000  3.71607000  3.66744000  1
  Mo  Mo13  1  5.43324000  5.39270000  3.68162000  1
  Mo  Mo14  1  5.46952000  3.65450000  1.81999000  1
  Mo  Mo15  1  3.58964000  5.39441000  1.87561000  1
