# generated using pymatgen
data_Mo
_symmetry_space_group_name_H-M   'P 1'
_cell_length_a   7.28968789
_cell_length_b   7.28968789
_cell_length_c   3.64484406
_cell_angle_alpha   90.00000000
_cell_angle_beta   90.00000000
_cell_angle_gamma   90.00000000
_symmetry_Int_Tables_number   1
_chemical_formula_structural   Mo
_chemical_formula_sum   Mo16
_cell_volume   193.68537117
_cell_formula_units_Z   16
loop_
 _symmetry_equiv_pos_site_id
 _symmetry_equiv_pos_as_xyz
  1  'x, y, z'
loop_
 _atom_site_type_symbol
 _atom_site_label
 _atom_site_symmetry_multiplicity
 _atom_site_fract_x
 _atom_site_fract_y
 _atom_site_fract_z
 _atom_site_occupancy
  Mo  Mo0  1  -0.12531200  7.23262000  3.60090000  1
  Mo  Mo1  1  1.89510000  1.79533000  3.66236000  1
  Mo  Mo2  1  1.85475000  -0.00305978  1.70467000  1
  Mo  Mo3  1  0.00917959  1.71038000  1.81537000  1
  Mo  Mo4  1  3.69682000  7.35519000  0.02573470  1
  Mo  Mo5  1  5.47570000  1.83445000  0.03948980  1
  Mo  Mo6  1  5.57292000  0.03577300  1.76993000  1
  Mo  Mo7  1  3.75355000  1.83414000  1.84336000  1
  Mo  Mo8  1  7.26521000  3.54527000  3.60489000  1
  Mo  Mo9  1  1.81598000  5.45024000  -0.01001980  1
  Mo  Mo10  1  1.74941000  3.71232000  1.90478000  1
  Mo  Mo11  1  -0.07062760  5.43333000  1.85651000  1
  Mo  Mo12  1  3.75283000  3.60129000  3.63320000  1
  Mo  Mo13  1  5.32559000  5.46425000  3.64337000  1
  Mo  Mo14  1  5.45760000  3.70179000  1.86205000  1
  Mo  Mo15  1  3.50561000  5.52068000  1.80026000  1
