# generated using pymatgen
data_Mo
_symmetry_space_group_name_H-M   'P 1'
_cell_length_a   7.28968789
_cell_length_b   7.28968789
_cell_length_c   3.64484406
_cell_angle_alpha   90.00000000
_cell_angle_beta   90.00000000
_cell_angle_gamma   90.00000000
_symmetry_Int_Tables_number   1
_chemical_formula_structural   Mo
_chemical_formula_sum   Mo16
_cell_volume   193.68537117
_cell_formula_units_Z   16
loop_
 _symmetry_equiv_pos_site_id
 _symmetry_equiv_pos_as_xyz
  1  'x, y, z'
loop_
 _atom_site_type_symbol
 _atom_site_label
 _atom_site_symmetry_multiplicity
 _atom_site_fract_x
 _atom_site_fract_y
 _atom_site_fract_z
 _atom_site_occupancy
  Mo  Mo0  1  -0.01073290  7.18684000  3.63847000  1
  Mo  Mo1  1  1.77429000  1.93706000  3.51179000  1
  Mo  Mo2  1  1.90179000  -0.01619360  1.82283000  1
  Mo  Mo3  1  0.04801180  1.80833000  1.82349000  1
  Mo  Mo4  1  3.57968000  7.24104000  -0.06127600  1
  Mo  Mo5  1  5.38235000  1.72024000  -0.04008440  1
  Mo  Mo6  1  5.56668000  0.08910210  1.90377000  1
  Mo  Mo7  1  3.66370000  1.91425000  1.64601000  1
  Mo  Mo8  1  7.20739000  3.55377000  3.63398000  1
  Mo  Mo9  1  1.82561000  5.37395000  -0.01490240  1
  Mo  Mo10  1  1.85619000  3.67624000  1.83148000  1
  Mo  Mo11  1  0.05253160  5.45468000  1.86143000  1
  Mo  Mo12  1  3.68462000  3.64686000  3.58348000  1
  Mo  Mo13  1  5.36014000  5.53810000  3.79211000  1
  Mo  Mo14  1  5.45262000  3.64046000  1.91725000  1
  Mo  Mo15  1  3.58946000  5.45925000  1.90702000  1
