# generated using pymatgen
data_Mo
_symmetry_space_group_name_H-M   'P 1'
_cell_length_a   7.28968789
_cell_length_b   7.28968789
_cell_length_c   3.64484406
_cell_angle_alpha   90.00000000
_cell_angle_beta   90.00000000
_cell_angle_gamma   90.00000000
_symmetry_Int_Tables_number   1
_chemical_formula_structural   Mo
_chemical_formula_sum   Mo16
_cell_volume   193.68537117
_cell_formula_units_Z   16
loop_
 _symmetry_equiv_pos_site_id
 _symmetry_equiv_pos_as_xyz
  1  'x, y, z'
loop_
 _atom_site_type_symbol
 _atom_site_label
 _atom_site_symmetry_multiplicity
 _atom_site_fract_x
 _atom_site_fract_y
 _atom_site_fract_z
 _atom_site_occupancy
  Mo  Mo0  1  -0.02866910  7.20886000  3.61437000  1
  Mo  Mo1  1  1.75622000  1.88273000  3.60779000  1
  Mo  Mo2  1  1.90165000  -0.08910150  1.76982000  1
  Mo  Mo3  1  -0.00943860  1.75965000  1.86201000  1
  Mo  Mo4  1  3.55841000  7.35005000  0.05527280  1
  Mo  Mo5  1  5.53418000  1.89395000  0.03677290  1
  Mo  Mo6  1  5.40388000  -0.02519500  1.96173000  1
  Mo  Mo7  1  3.60096000  1.80129000  1.81678000  1
  Mo  Mo8  1  7.29649000  3.81889000  3.50622000  1
  Mo  Mo9  1  1.93946000  5.33786000  -0.07463120  1
  Mo  Mo10  1  1.85196000  3.69140000  1.76552000  1
  Mo  Mo11  1  -0.04828100  5.54150000  1.87377000  1
  Mo  Mo12  1  3.64669000  3.57735000  3.61099000  1
  Mo  Mo13  1  5.40974000  5.34984000  3.67002000  1
  Mo  Mo14  1  5.48823000  3.61862000  1.84485000  1
  Mo  Mo15  1  3.63283000  5.50629000  1.83557000  1
