# generated using pymatgen
data_Mo
_symmetry_space_group_name_H-M   'P 1'
_cell_length_a   7.28968789
_cell_length_b   7.28968789
_cell_length_c   3.64484406
_cell_angle_alpha   90.00000000
_cell_angle_beta   90.00000000
_cell_angle_gamma   90.00000000
_symmetry_Int_Tables_number   1
_chemical_formula_structural   Mo
_chemical_formula_sum   Mo16
_cell_volume   193.68537117
_cell_formula_units_Z   16
loop_
 _symmetry_equiv_pos_site_id
 _symmetry_equiv_pos_as_xyz
  1  'x, y, z'
loop_
 _atom_site_type_symbol
 _atom_site_label
 _atom_site_symmetry_multiplicity
 _atom_site_fract_x
 _atom_site_fract_y
 _atom_site_fract_z
 _atom_site_occupancy
  Mo  Mo0  1  0.07534510  7.36893000  3.71212000  1
  Mo  Mo1  1  1.88723000  1.87174000  3.59455000  1
  Mo  Mo2  1  1.85298000  -0.03907650  1.74013000  1
  Mo  Mo3  1  0.26033700  1.83976000  1.87049000  1
  Mo  Mo4  1  3.54590000  7.35445000  -0.01800760  1
  Mo  Mo5  1  5.52163000  1.70558000  0.00380713  1
  Mo  Mo6  1  5.44349000  -0.01446920  1.85647000  1
  Mo  Mo7  1  3.65969000  1.80494000  1.81649000  1
  Mo  Mo8  1  7.22198000  3.51998000  3.67565000  1
  Mo  Mo9  1  1.59971000  5.44433000  -0.11208800  1
  Mo  Mo10  1  1.82872000  3.67197000  1.80183000  1
  Mo  Mo11  1  0.03821660  5.43044000  1.74489000  1
  Mo  Mo12  1  3.63277000  3.66284000  3.72201000  1
  Mo  Mo13  1  5.40842000  5.53125000  3.63684000  1
  Mo  Mo14  1  5.39404000  3.58526000  1.84054000  1
  Mo  Mo15  1  3.56384000  5.48608000  1.87114000  1
