# generated using pymatgen
data_Mo
_symmetry_space_group_name_H-M   'P 1'
_cell_length_a   7.28968789
_cell_length_b   7.28968789
_cell_length_c   3.64484406
_cell_angle_alpha   90.00000000
_cell_angle_beta   90.00000000
_cell_angle_gamma   90.00000000
_symmetry_Int_Tables_number   1
_chemical_formula_structural   Mo
_chemical_formula_sum   Mo16
_cell_volume   193.68537117
_cell_formula_units_Z   16
loop_
 _symmetry_equiv_pos_site_id
 _symmetry_equiv_pos_as_xyz
  1  'x, y, z'
loop_
 _atom_site_type_symbol
 _atom_site_label
 _atom_site_symmetry_multiplicity
 _atom_site_fract_x
 _atom_site_fract_y
 _atom_site_fract_z
 _atom_site_occupancy
  Mo  Mo0  1  0.02425100  7.33460000  3.58832000  1
  Mo  Mo1  1  1.90474000  1.78913000  3.57600000  1
  Mo  Mo2  1  1.88151000  -0.17505400  1.87505000  1
  Mo  Mo3  1  -0.08434850  1.77430000  1.84067000  1
  Mo  Mo4  1  3.67746000  7.29718000  -0.00812562  1
  Mo  Mo5  1  5.52343000  1.79284000  0.11827000  1
  Mo  Mo6  1  5.41304000  0.00267025  1.85693000  1
  Mo  Mo7  1  3.68884000  1.85815000  1.96471000  1
  Mo  Mo8  1  7.27399000  3.61582000  3.63670000  1
  Mo  Mo9  1  1.90038000  5.38527000  -0.12042100  1
  Mo  Mo10  1  1.74074000  3.64669000  1.73475000  1
  Mo  Mo11  1  -0.09066020  5.51185000  1.85840000  1
  Mo  Mo12  1  3.64970000  3.65699000  3.65952000  1
  Mo  Mo13  1  5.45704000  5.64152000  3.60490000  1
  Mo  Mo14  1  5.30457000  3.62967000  1.76556000  1
  Mo  Mo15  1  3.66963000  5.46237000  1.80562000  1
