# generated using pymatgen
data_Mo
_symmetry_space_group_name_H-M   'P 1'
_cell_length_a   7.28968789
_cell_length_b   7.28968789
_cell_length_c   3.64484406
_cell_angle_alpha   90.00000000
_cell_angle_beta   90.00000000
_cell_angle_gamma   90.00000000
_symmetry_Int_Tables_number   1
_chemical_formula_structural   Mo
_chemical_formula_sum   Mo16
_cell_volume   193.68537117
_cell_formula_units_Z   16
loop_
 _symmetry_equiv_pos_site_id
 _symmetry_equiv_pos_as_xyz
  1  'x, y, z'
loop_
 _atom_site_type_symbol
 _atom_site_label
 _atom_site_symmetry_multiplicity
 _atom_site_fract_x
 _atom_site_fract_y
 _atom_site_fract_z
 _atom_site_occupancy
  Mo  Mo0  1  0.03017940  7.33079000  3.72286000  1
  Mo  Mo1  1  1.72593000  1.87259000  3.61890000  1
  Mo  Mo2  1  1.81922000  -0.14855400  1.83775000  1
  Mo  Mo3  1  -0.07861590  1.80642000  1.86017000  1
  Mo  Mo4  1  3.69051000  7.35021000  -0.00353674  1
  Mo  Mo5  1  5.49198000  1.87531000  0.02951840  1
  Mo  Mo6  1  5.40729000  -0.10168200  1.99293000  1
  Mo  Mo7  1  3.54158000  1.79898000  1.74436000  1
  Mo  Mo8  1  7.34119000  3.67997000  3.63971000  1
  Mo  Mo9  1  1.88597000  5.41349000  -0.02228530  1
  Mo  Mo10  1  1.89289000  3.72832000  1.66957000  1
  Mo  Mo11  1  0.04793720  5.50770000  1.79264000  1
  Mo  Mo12  1  3.52575000  3.57147000  3.56945000  1
  Mo  Mo13  1  5.47636000  5.43895000  3.69867000  1
  Mo  Mo14  1  5.41836000  3.65785000  1.80155000  1
  Mo  Mo15  1  3.71778000  5.44218000  1.80457000  1
