# generated using pymatgen
data_Mo
_symmetry_space_group_name_H-M   'P 1'
_cell_length_a   7.28968789
_cell_length_b   7.28968789
_cell_length_c   3.64484406
_cell_angle_alpha   90.00000000
_cell_angle_beta   90.00000000
_cell_angle_gamma   90.00000000
_symmetry_Int_Tables_number   1
_chemical_formula_structural   Mo
_chemical_formula_sum   Mo16
_cell_volume   193.68537117
_cell_formula_units_Z   16
loop_
 _symmetry_equiv_pos_site_id
 _symmetry_equiv_pos_as_xyz
  1  'x, y, z'
loop_
 _atom_site_type_symbol
 _atom_site_label
 _atom_site_symmetry_multiplicity
 _atom_site_fract_x
 _atom_site_fract_y
 _atom_site_fract_z
 _atom_site_occupancy
  Mo  Mo0  1  0.05403730  7.37865000  3.64377000  1
  Mo  Mo1  1  1.81789000  1.80725000  3.62704000  1
  Mo  Mo2  1  1.77549000  -0.04971090  1.74500000  1
  Mo  Mo3  1  -0.12705900  1.77880000  1.81913000  1
  Mo  Mo4  1  3.67221000  7.30680000  -0.04769480  1
  Mo  Mo5  1  5.41629000  1.75073000  -0.04005570  1
  Mo  Mo6  1  5.42954000  -0.00696097  1.72649000  1
  Mo  Mo7  1  3.60066000  1.81921000  1.83512000  1
  Mo  Mo8  1  7.23902000  3.59738000  3.62395000  1
  Mo  Mo9  1  1.98079000  5.49041000  -0.03564560  1
  Mo  Mo10  1  1.83222000  3.64402000  1.91087000  1
  Mo  Mo11  1  0.00274160  5.46805000  1.80700000  1
  Mo  Mo12  1  3.71228000  3.60891000  3.70151000  1
  Mo  Mo13  1  5.47598000  5.49624000  3.66716000  1
  Mo  Mo14  1  5.37043000  3.66591000  1.87109000  1
  Mo  Mo15  1  3.68180000  5.46833000  1.90211000  1
