# generated using pymatgen
data_Mo
_symmetry_space_group_name_H-M   'P 1'
_cell_length_a   7.27806742
_cell_length_b   7.27806742
_cell_length_c   3.63903379
_cell_angle_alpha   90.00000000
_cell_angle_beta   90.00000000
_cell_angle_gamma   90.00000000
_symmetry_Int_Tables_number   1
_chemical_formula_structural   Mo
_chemical_formula_sum   Mo16
_cell_volume   192.76058556
_cell_formula_units_Z   16
loop_
 _symmetry_equiv_pos_site_id
 _symmetry_equiv_pos_as_xyz
  1  'x, y, z'
loop_
 _atom_site_type_symbol
 _atom_site_label
 _atom_site_symmetry_multiplicity
 _atom_site_fract_x
 _atom_site_fract_y
 _atom_site_fract_z
 _atom_site_occupancy
  Mo  Mo0  1  0.00971691  7.26858000  3.66193000  1
  Mo  Mo1  1  1.83189000  1.82729000  0.01259730  1
  Mo  Mo2  1  1.83209000  7.29384000  1.81881000  1
  Mo  Mo3  1  7.29727000  1.79891000  1.82097000  1
  Mo  Mo4  1  3.64952000  7.27525000  0.01524760  1
  Mo  Mo5  1  5.42650000  1.82470000  0.01208500  1
  Mo  Mo6  1  5.48069000  -0.00703185  1.80344000  1
  Mo  Mo7  1  3.62955000  1.82473000  1.83940000  1
  Mo  Mo8  1  7.26836000  3.65250000  3.62136000  1
  Mo  Mo9  1  1.81052000  5.44709000  3.61057000  1
  Mo  Mo10  1  1.82581000  3.63691000  1.79681000  1
  Mo  Mo11  1  -0.01928120  5.46144000  1.78768000  1
  Mo  Mo12  1  3.64470000  3.65202000  3.62566000  1
  Mo  Mo13  1  5.45019000  5.45779000  3.66267000  1
  Mo  Mo14  1  5.45697000  3.63520000  1.81607000  1
  Mo  Mo15  1  3.62951000  5.45284000  1.84573000  1
