# generated using pymatgen
data_Mo
_symmetry_space_group_name_H-M   'P 1'
_cell_length_a   7.28968789
_cell_length_b   7.28968789
_cell_length_c   3.64484406
_cell_angle_alpha   90.00000000
_cell_angle_beta   90.00000000
_cell_angle_gamma   90.00000000
_symmetry_Int_Tables_number   1
_chemical_formula_structural   Mo
_chemical_formula_sum   Mo16
_cell_volume   193.68537117
_cell_formula_units_Z   16
loop_
 _symmetry_equiv_pos_site_id
 _symmetry_equiv_pos_as_xyz
  1  'x, y, z'
loop_
 _atom_site_type_symbol
 _atom_site_label
 _atom_site_symmetry_multiplicity
 _atom_site_fract_x
 _atom_site_fract_y
 _atom_site_fract_z
 _atom_site_occupancy
  Mo  Mo0  1  0.02734330  7.37918000  3.68770000  1
  Mo  Mo1  1  1.85793000  1.80698000  3.55207000  1
  Mo  Mo2  1  1.86710000  -0.04207420  1.78204000  1
  Mo  Mo3  1  -0.03821690  1.85263000  1.77989000  1
  Mo  Mo4  1  3.58865000  7.28784000  -0.01196270  1
  Mo  Mo5  1  5.49614000  1.82992000  0.01215600  1
  Mo  Mo6  1  5.49973000  -0.04655680  1.83227000  1
  Mo  Mo7  1  3.78538000  1.76504000  1.89577000  1
  Mo  Mo8  1  7.30591000  3.66476000  3.73621000  1
  Mo  Mo9  1  1.61048000  5.38250000  -0.11060400  1
  Mo  Mo10  1  1.85530000  3.58967000  1.79432000  1
  Mo  Mo11  1  -0.18853200  5.48842000  1.86760000  1
  Mo  Mo12  1  3.83810000  3.61741000  3.66278000  1
  Mo  Mo13  1  5.34119000  5.50586000  3.59151000  1
  Mo  Mo14  1  5.46833000  3.76085000  1.89943000  1
  Mo  Mo15  1  3.61949000  5.38156000  1.78567000  1
