# generated using pymatgen
data_Mo
_symmetry_space_group_name_H-M   'P 1'
_cell_length_a   7.28968789
_cell_length_b   7.28968789
_cell_length_c   3.64484406
_cell_angle_alpha   90.00000000
_cell_angle_beta   90.00000000
_cell_angle_gamma   90.00000000
_symmetry_Int_Tables_number   1
_chemical_formula_structural   Mo
_chemical_formula_sum   Mo16
_cell_volume   193.68537117
_cell_formula_units_Z   16
loop_
 _symmetry_equiv_pos_site_id
 _symmetry_equiv_pos_as_xyz
  1  'x, y, z'
loop_
 _atom_site_type_symbol
 _atom_site_label
 _atom_site_symmetry_multiplicity
 _atom_site_fract_x
 _atom_site_fract_y
 _atom_site_fract_z
 _atom_site_occupancy
  Mo  Mo0  1  -0.08090950  7.15655000  3.63677000  1
  Mo  Mo1  1  1.89404000  1.80525000  3.64080000  1
  Mo  Mo2  1  1.81710000  0.03041080  1.78859000  1
  Mo  Mo3  1  -0.02412770  1.83777000  1.79298000  1
  Mo  Mo4  1  3.62073000  7.28048000  0.03308080  1
  Mo  Mo5  1  5.46798000  1.79142000  -0.06178180  1
  Mo  Mo6  1  5.45378000  -0.01585660  1.84795000  1
  Mo  Mo7  1  3.72002000  1.91947000  1.77833000  1
  Mo  Mo8  1  7.31570000  3.64058000  3.60781000  1
  Mo  Mo9  1  1.77742000  5.47030000  0.11993500  1
  Mo  Mo10  1  1.88519000  3.58051000  1.89114000  1
  Mo  Mo11  1  -0.03322370  5.31284000  1.89617000  1
  Mo  Mo12  1  3.83636000  3.77522000  3.58742000  1
  Mo  Mo13  1  5.31612000  5.51178000  3.64768000  1
  Mo  Mo14  1  5.43231000  3.69076000  1.77973000  1
  Mo  Mo15  1  3.53582000  5.43651000  1.77023000  1
