# generated using pymatgen
data_Mo
_symmetry_space_group_name_H-M   'P 1'
_cell_length_a   7.28968789
_cell_length_b   7.28968789
_cell_length_c   3.64484406
_cell_angle_alpha   90.00000000
_cell_angle_beta   90.00000000
_cell_angle_gamma   90.00000000
_symmetry_Int_Tables_number   1
_chemical_formula_structural   Mo
_chemical_formula_sum   Mo16
_cell_volume   193.68537117
_cell_formula_units_Z   16
loop_
 _symmetry_equiv_pos_site_id
 _symmetry_equiv_pos_as_xyz
  1  'x, y, z'
loop_
 _atom_site_type_symbol
 _atom_site_label
 _atom_site_symmetry_multiplicity
 _atom_site_fract_x
 _atom_site_fract_y
 _atom_site_fract_z
 _atom_site_occupancy
  Mo  Mo0  1  0.11784400  7.24230000  3.63285000  1
  Mo  Mo1  1  1.78232000  1.91844000  3.65631000  1
  Mo  Mo2  1  1.80499000  0.01612380  1.87960000  1
  Mo  Mo3  1  0.05329100  1.86346000  1.85516000  1
  Mo  Mo4  1  3.56867000  7.16038000  -0.00091725  1
  Mo  Mo5  1  5.49101000  1.77744000  0.08943420  1
  Mo  Mo6  1  5.46739000  -0.02092930  1.88802000  1
  Mo  Mo7  1  3.56637000  1.83482000  1.91333000  1
  Mo  Mo8  1  7.30291000  3.68656000  3.60842000  1
  Mo  Mo9  1  1.76499000  5.42175000  -0.00361535  1
  Mo  Mo10  1  1.90991000  3.75698000  1.86593000  1
  Mo  Mo11  1  -0.00109181  5.43816000  1.78298000  1
  Mo  Mo12  1  3.63935000  3.67566000  3.58271000  1
  Mo  Mo13  1  5.42181000  5.53172000  3.56785000  1
  Mo  Mo14  1  5.47520000  3.58190000  1.76391000  1
  Mo  Mo15  1  3.56934000  5.33923000  1.67488000  1
