# generated using pymatgen
data_Mo
_symmetry_space_group_name_H-M   'P 1'
_cell_length_a   7.28968789
_cell_length_b   7.28968789
_cell_length_c   3.64484406
_cell_angle_alpha   90.00000000
_cell_angle_beta   90.00000000
_cell_angle_gamma   90.00000000
_symmetry_Int_Tables_number   1
_chemical_formula_structural   Mo
_chemical_formula_sum   Mo16
_cell_volume   193.68537117
_cell_formula_units_Z   16
loop_
 _symmetry_equiv_pos_site_id
 _symmetry_equiv_pos_as_xyz
  1  'x, y, z'
loop_
 _atom_site_type_symbol
 _atom_site_label
 _atom_site_symmetry_multiplicity
 _atom_site_fract_x
 _atom_site_fract_y
 _atom_site_fract_z
 _atom_site_occupancy
  Mo  Mo0  1  -0.06509690  7.17893000  3.60528000  1
  Mo  Mo1  1  1.95229000  1.72416000  3.69131000  1
  Mo  Mo2  1  1.75899000  0.00507770  1.78251000  1
  Mo  Mo3  1  0.03419740  1.79483000  1.79682000  1
  Mo  Mo4  1  3.59029000  7.21039000  -0.04200960  1
  Mo  Mo5  1  5.42888000  1.76524000  -0.02970990  1
  Mo  Mo6  1  5.33068000  0.06846030  1.81111000  1
  Mo  Mo7  1  3.53354000  1.98973000  1.77360000  1
  Mo  Mo8  1  7.33836000  3.64982000  3.59940000  1
  Mo  Mo9  1  1.82065000  5.56838000  0.08461560  1
  Mo  Mo10  1  1.88198000  3.70323000  1.95279000  1
  Mo  Mo11  1  -0.08819890  5.32681000  1.88691000  1
  Mo  Mo12  1  3.69019000  3.79285000  3.64682000  1
  Mo  Mo13  1  5.61662000  5.42585000  3.62855000  1
  Mo  Mo14  1  5.49004000  3.56122000  1.74732000  1
  Mo  Mo15  1  3.62091000  5.45903000  1.82155000  1
