# generated using pymatgen
data_Mo
_symmetry_space_group_name_H-M   'P 1'
_cell_length_a   7.28968789
_cell_length_b   7.28968789
_cell_length_c   3.64484406
_cell_angle_alpha   90.00000000
_cell_angle_beta   90.00000000
_cell_angle_gamma   90.00000000
_symmetry_Int_Tables_number   1
_chemical_formula_structural   Mo
_chemical_formula_sum   Mo16
_cell_volume   193.68537117
_cell_formula_units_Z   16
loop_
 _symmetry_equiv_pos_site_id
 _symmetry_equiv_pos_as_xyz
  1  'x, y, z'
loop_
 _atom_site_type_symbol
 _atom_site_label
 _atom_site_symmetry_multiplicity
 _atom_site_fract_x
 _atom_site_fract_y
 _atom_site_fract_z
 _atom_site_occupancy
  Mo  Mo0  1  0.01117560  7.43254000  3.64902000  1
  Mo  Mo1  1  1.66974000  1.82714000  3.64448000  1
  Mo  Mo2  1  1.97607000  -0.04822600  1.75918000  1
  Mo  Mo3  1  0.03805720  1.79461000  1.78415000  1
  Mo  Mo4  1  3.71093000  7.27837000  0.05480550  1
  Mo  Mo5  1  5.47627000  1.82632000  0.02524180  1
  Mo  Mo6  1  5.50370000  0.00862168  1.84022000  1
  Mo  Mo7  1  3.53400000  1.73517000  1.86082000  1
  Mo  Mo8  1  7.29224000  3.58018000  3.60480000  1
  Mo  Mo9  1  1.69881000  5.49744000  -0.03646300  1
  Mo  Mo10  1  1.67848000  3.64893000  1.85863000  1
  Mo  Mo11  1  0.07127300  5.58535000  1.79191000  1
  Mo  Mo12  1  3.58615000  3.58648000  3.66460000  1
  Mo  Mo13  1  5.53250000  5.48163000  3.64999000  1
  Mo  Mo14  1  5.45697000  3.59312000  1.85092000  1
  Mo  Mo15  1  3.69795000  5.39632000  1.75454000  1
