# generated using pymatgen
data_Mo
_symmetry_space_group_name_H-M   'P 1'
_cell_length_a   7.28968789
_cell_length_b   7.28968789
_cell_length_c   3.64484406
_cell_angle_alpha   90.00000000
_cell_angle_beta   90.00000000
_cell_angle_gamma   90.00000000
_symmetry_Int_Tables_number   1
_chemical_formula_structural   Mo
_chemical_formula_sum   Mo16
_cell_volume   193.68537117
_cell_formula_units_Z   16
loop_
 _symmetry_equiv_pos_site_id
 _symmetry_equiv_pos_as_xyz
  1  'x, y, z'
loop_
 _atom_site_type_symbol
 _atom_site_label
 _atom_site_symmetry_multiplicity
 _atom_site_fract_x
 _atom_site_fract_y
 _atom_site_fract_z
 _atom_site_occupancy
  Mo  Mo0  1  0.22171200  7.33341000  3.69999000  1
  Mo  Mo1  1  1.88451000  1.85803000  3.66570000  1
  Mo  Mo2  1  1.82571000  -0.02620710  1.75858000  1
  Mo  Mo3  1  -0.03586040  1.75246000  1.78324000  1
  Mo  Mo4  1  3.58426000  7.39898000  0.01619840  1
  Mo  Mo5  1  5.52530000  1.82563000  -0.10508300  1
  Mo  Mo6  1  5.36421000  -0.03951760  1.76481000  1
  Mo  Mo7  1  3.60556000  1.85325000  1.75838000  1
  Mo  Mo8  1  7.19319000  3.66797000  3.65383000  1
  Mo  Mo9  1  1.83335000  5.31918000  0.06349450  1
  Mo  Mo10  1  1.77973000  3.61574000  1.75752000  1
  Mo  Mo11  1  -0.00380940  5.41034000  1.87825000  1
  Mo  Mo12  1  3.63913000  3.69489000  3.64734000  1
  Mo  Mo13  1  5.48380000  5.49656000  3.73964000  1
  Mo  Mo14  1  5.39809000  3.61592000  1.82224000  1
  Mo  Mo15  1  3.63544000  5.44735000  1.85272000  1
