# generated using pymatgen
data_Mo
_symmetry_space_group_name_H-M   'P 1'
_cell_length_a   7.28968789
_cell_length_b   7.28968789
_cell_length_c   3.64484406
_cell_angle_alpha   90.00000000
_cell_angle_beta   90.00000000
_cell_angle_gamma   90.00000000
_symmetry_Int_Tables_number   1
_chemical_formula_structural   Mo
_chemical_formula_sum   Mo16
_cell_volume   193.68537117
_cell_formula_units_Z   16
loop_
 _symmetry_equiv_pos_site_id
 _symmetry_equiv_pos_as_xyz
  1  'x, y, z'
loop_
 _atom_site_type_symbol
 _atom_site_label
 _atom_site_symmetry_multiplicity
 _atom_site_fract_x
 _atom_site_fract_y
 _atom_site_fract_z
 _atom_site_occupancy
  Mo  Mo0  1  -0.03263300  7.16271000  3.61525000  1
  Mo  Mo1  1  1.87638000  1.73557000  3.68607000  1
  Mo  Mo2  1  1.79044000  0.03446720  1.87085000  1
  Mo  Mo3  1  -0.16131700  1.94164000  1.80105000  1
  Mo  Mo4  1  3.68083000  7.22718000  0.01315550  1
  Mo  Mo5  1  5.40629000  1.77844000  -0.07858120  1
  Mo  Mo6  1  5.50816000  0.02554380  1.76699000  1
  Mo  Mo7  1  3.64518000  1.84334000  1.75041000  1
  Mo  Mo8  1  7.31989000  3.65646000  3.53570000  1
  Mo  Mo9  1  1.88661000  5.52362000  0.10104200  1
  Mo  Mo10  1  1.83089000  3.52315000  1.83633000  1
  Mo  Mo11  1  0.02400670  5.32339000  1.80436000  1
  Mo  Mo12  1  3.78775000  3.72012000  3.62538000  1
  Mo  Mo13  1  5.37681000  5.57920000  3.67180000  1
  Mo  Mo14  1  5.39104000  3.63639000  1.90422000  1
  Mo  Mo15  1  3.60399000  5.51279000  1.85280000  1
