# generated using pymatgen
data_Mo
_symmetry_space_group_name_H-M   'P 1'
_cell_length_a   7.27806742
_cell_length_b   7.27806742
_cell_length_c   3.63903379
_cell_angle_alpha   90.00000000
_cell_angle_beta   90.00000000
_cell_angle_gamma   90.00000000
_symmetry_Int_Tables_number   1
_chemical_formula_structural   Mo
_chemical_formula_sum   Mo16
_cell_volume   192.76058556
_cell_formula_units_Z   16
loop_
 _symmetry_equiv_pos_site_id
 _symmetry_equiv_pos_as_xyz
  1  'x, y, z'
loop_
 _atom_site_type_symbol
 _atom_site_label
 _atom_site_symmetry_multiplicity
 _atom_site_fract_x
 _atom_site_fract_y
 _atom_site_fract_z
 _atom_site_occupancy
  Mo  Mo0  1  0.00276382  7.28038000  3.63794000  1
  Mo  Mo1  1  1.79526000  1.80557000  0.00544542  1
  Mo  Mo2  1  1.82438000  7.27655000  1.83338000  1
  Mo  Mo3  1  7.27201000  1.81020000  1.82595000  1
  Mo  Mo4  1  3.63182000  7.30619000  0.02561640  1
  Mo  Mo5  1  5.46277000  1.81587000  0.01098370  1
  Mo  Mo6  1  5.48078000  0.00115655  1.81846000  1
  Mo  Mo7  1  3.64856000  1.82420000  1.84414000  1
  Mo  Mo8  1  7.29543000  3.63573000  3.61751000  1
  Mo  Mo9  1  1.80125000  5.47225000  3.60931000  1
  Mo  Mo10  1  1.83691000  3.64058000  1.78898000  1
  Mo  Mo11  1  -0.01176360  5.44947000  1.80484000  1
  Mo  Mo12  1  3.63415000  3.62483000  3.65236000  1
  Mo  Mo13  1  5.45760000  5.45241000  3.65073000  1
  Mo  Mo14  1  5.45521000  3.65650000  1.81001000  1
  Mo  Mo15  1  3.63690000  5.45019000  1.81537000  1
