# generated using pymatgen
data_Mo
_symmetry_space_group_name_H-M   'P 1'
_cell_length_a   7.28968789
_cell_length_b   7.28968789
_cell_length_c   3.64484406
_cell_angle_alpha   90.00000000
_cell_angle_beta   90.00000000
_cell_angle_gamma   90.00000000
_symmetry_Int_Tables_number   1
_chemical_formula_structural   Mo
_chemical_formula_sum   Mo16
_cell_volume   193.68537117
_cell_formula_units_Z   16
loop_
 _symmetry_equiv_pos_site_id
 _symmetry_equiv_pos_as_xyz
  1  'x, y, z'
loop_
 _atom_site_type_symbol
 _atom_site_label
 _atom_site_symmetry_multiplicity
 _atom_site_fract_x
 _atom_site_fract_y
 _atom_site_fract_z
 _atom_site_occupancy
  Mo  Mo0  1  0.12562200  7.34259000  3.61711000  1
  Mo  Mo1  1  1.96931000  1.87001000  3.69184000  1
  Mo  Mo2  1  1.81681000  -0.01295170  1.78618000  1
  Mo  Mo3  1  0.02288340  1.81982000  1.85769000  1
  Mo  Mo4  1  3.56666000  7.21734000  -0.04818760  1
  Mo  Mo5  1  5.49097000  1.81626000  0.05828250  1
  Mo  Mo6  1  5.58124000  0.11347300  1.77133000  1
  Mo  Mo7  1  3.64882000  1.81341000  1.77345000  1
  Mo  Mo8  1  7.35422000  3.58333000  3.61483000  1
  Mo  Mo9  1  1.77690000  5.39771000  -0.03115460  1
  Mo  Mo10  1  1.77192000  3.62316000  1.80697000  1
  Mo  Mo11  1  -0.14667100  5.48702000  1.81096000  1
  Mo  Mo12  1  3.59674000  3.59351000  3.62386000  1
  Mo  Mo13  1  5.42272000  5.51339000  3.73306000  1
  Mo  Mo14  1  5.46721000  3.56467000  1.92063000  1
  Mo  Mo15  1  3.46897000  5.48129000  1.76999000  1
