# generated using pymatgen
data_Mo
_symmetry_space_group_name_H-M   'P 1'
_cell_length_a   7.28968789
_cell_length_b   7.28968789
_cell_length_c   3.64484406
_cell_angle_alpha   90.00000000
_cell_angle_beta   90.00000000
_cell_angle_gamma   90.00000000
_symmetry_Int_Tables_number   1
_chemical_formula_structural   Mo
_chemical_formula_sum   Mo16
_cell_volume   193.68537117
_cell_formula_units_Z   16
loop_
 _symmetry_equiv_pos_site_id
 _symmetry_equiv_pos_as_xyz
  1  'x, y, z'
loop_
 _atom_site_type_symbol
 _atom_site_label
 _atom_site_symmetry_multiplicity
 _atom_site_fract_x
 _atom_site_fract_y
 _atom_site_fract_z
 _atom_site_occupancy
  Mo  Mo0  1  0.09265630  7.25523000  3.59502000  1
  Mo  Mo1  1  1.88487000  1.87516000  3.53951000  1
  Mo  Mo2  1  1.83282000  -0.12856600  1.79219000  1
  Mo  Mo3  1  0.00126651  1.87153000  1.70428000  1
  Mo  Mo4  1  3.60250000  7.34791000  0.02577760  1
  Mo  Mo5  1  5.40912000  1.77573000  -0.08924440  1
  Mo  Mo6  1  5.38989000  -0.03373880  1.76447000  1
  Mo  Mo7  1  3.60894000  1.83144000  1.81258000  1
  Mo  Mo8  1  7.28342000  3.60412000  3.66539000  1
  Mo  Mo9  1  1.86310000  5.37834000  0.04090970  1
  Mo  Mo10  1  1.79174000  3.60466000  1.83698000  1
  Mo  Mo11  1  -0.02648060  5.39156000  1.94303000  1
  Mo  Mo12  1  3.67052000  3.59668000  3.62452000  1
  Mo  Mo13  1  5.47191000  5.56403000  3.67384000  1
  Mo  Mo14  1  5.43332000  3.74713000  1.87970000  1
  Mo  Mo15  1  3.62474000  5.54278000  1.94788000  1
