# generated using pymatgen
data_Mo
_symmetry_space_group_name_H-M   'P 1'
_cell_length_a   7.28968789
_cell_length_b   7.28968789
_cell_length_c   3.64484406
_cell_angle_alpha   90.00000000
_cell_angle_beta   90.00000000
_cell_angle_gamma   90.00000000
_symmetry_Int_Tables_number   1
_chemical_formula_structural   Mo
_chemical_formula_sum   Mo16
_cell_volume   193.68537117
_cell_formula_units_Z   16
loop_
 _symmetry_equiv_pos_site_id
 _symmetry_equiv_pos_as_xyz
  1  'x, y, z'
loop_
 _atom_site_type_symbol
 _atom_site_label
 _atom_site_symmetry_multiplicity
 _atom_site_fract_x
 _atom_site_fract_y
 _atom_site_fract_z
 _atom_site_occupancy
  Mo  Mo0  1  -0.02621200  7.30593000  3.61581000  1
  Mo  Mo1  1  1.97264000  1.80936000  3.68099000  1
  Mo  Mo2  1  1.73285000  0.03320050  1.84430000  1
  Mo  Mo3  1  0.02878410  1.88461000  1.81241000  1
  Mo  Mo4  1  3.62536000  7.17495000  -0.02802070  1
  Mo  Mo5  1  5.49164000  1.87811000  0.00938414  1
  Mo  Mo6  1  5.40259000  0.01080240  1.76758000  1
  Mo  Mo7  1  3.76430000  1.81148000  1.75252000  1
  Mo  Mo8  1  7.03278000  3.62762000  3.57497000  1
  Mo  Mo9  1  1.82681000  5.44541000  0.07488000  1
  Mo  Mo10  1  1.79003000  3.54619000  1.78667000  1
  Mo  Mo11  1  -0.05097050  5.47626000  1.82734000  1
  Mo  Mo12  1  3.72432000  3.61227000  3.63504000  1
  Mo  Mo13  1  5.48523000  5.49430000  3.75383000  1
  Mo  Mo14  1  5.48260000  3.68464000  1.84363000  1
  Mo  Mo15  1  3.65157000  5.42888000  1.80551000  1
