# generated using pymatgen
data_Mo
_symmetry_space_group_name_H-M   'P 1'
_cell_length_a   7.28968789
_cell_length_b   7.28968789
_cell_length_c   3.64484406
_cell_angle_alpha   90.00000000
_cell_angle_beta   90.00000000
_cell_angle_gamma   90.00000000
_symmetry_Int_Tables_number   1
_chemical_formula_structural   Mo
_chemical_formula_sum   Mo16
_cell_volume   193.68537117
_cell_formula_units_Z   16
loop_
 _symmetry_equiv_pos_site_id
 _symmetry_equiv_pos_as_xyz
  1  'x, y, z'
loop_
 _atom_site_type_symbol
 _atom_site_label
 _atom_site_symmetry_multiplicity
 _atom_site_fract_x
 _atom_site_fract_y
 _atom_site_fract_z
 _atom_site_occupancy
  Mo  Mo0  1  0.01013710  7.37905000  3.61141000  1
  Mo  Mo1  1  1.77125000  1.82485000  3.57682000  1
  Mo  Mo2  1  1.78938000  -0.02239580  1.86695000  1
  Mo  Mo3  1  0.10850800  1.89375000  1.76523000  1
  Mo  Mo4  1  3.60408000  7.27684000  0.00840900  1
  Mo  Mo5  1  5.47442000  1.77194000  -0.06634080  1
  Mo  Mo6  1  5.39136000  0.10213500  1.77834000  1
  Mo  Mo7  1  3.62698000  1.78618000  1.88890000  1
  Mo  Mo8  1  7.19872000  3.69137000  3.74114000  1
  Mo  Mo9  1  1.74829000  5.42189000  -0.01737010  1
  Mo  Mo10  1  1.89144000  3.64587000  1.83595000  1
  Mo  Mo11  1  0.12876900  5.45311000  1.87058000  1
  Mo  Mo12  1  3.64725000  3.62311000  3.65967000  1
  Mo  Mo13  1  5.48806000  5.48564000  3.59279000  1
  Mo  Mo14  1  5.41956000  3.54018000  1.81805000  1
  Mo  Mo15  1  3.63610000  5.35046000  1.82632000  1
