# generated using pymatgen
data_Mo
_symmetry_space_group_name_H-M   'P 1'
_cell_length_a   7.28968789
_cell_length_b   7.28968789
_cell_length_c   3.64484406
_cell_angle_alpha   90.00000000
_cell_angle_beta   90.00000000
_cell_angle_gamma   90.00000000
_symmetry_Int_Tables_number   1
_chemical_formula_structural   Mo
_chemical_formula_sum   Mo16
_cell_volume   193.68537117
_cell_formula_units_Z   16
loop_
 _symmetry_equiv_pos_site_id
 _symmetry_equiv_pos_as_xyz
  1  'x, y, z'
loop_
 _atom_site_type_symbol
 _atom_site_label
 _atom_site_symmetry_multiplicity
 _atom_site_fract_x
 _atom_site_fract_y
 _atom_site_fract_z
 _atom_site_occupancy
  Mo  Mo0  1  -0.07897650  7.37541000  3.57487000  1
  Mo  Mo1  1  1.86732000  1.75540000  3.54455000  1
  Mo  Mo2  1  1.70453000  0.05596920  1.80787000  1
  Mo  Mo3  1  -0.07789860  1.80818000  1.74548000  1
  Mo  Mo4  1  3.68639000  7.26901000  0.01559980  1
  Mo  Mo5  1  5.51796000  1.85816000  -0.00337253  1
  Mo  Mo6  1  5.40230000  -0.07913280  1.87364000  1
  Mo  Mo7  1  3.69824000  1.86175000  1.83760000  1
  Mo  Mo8  1  7.36446000  3.55049000  3.61419000  1
  Mo  Mo9  1  1.73826000  5.54348000  -0.03562080  1
  Mo  Mo10  1  1.77574000  3.55092000  1.78099000  1
  Mo  Mo11  1  -0.01011920  5.40854000  1.91915000  1
  Mo  Mo12  1  3.68906000  3.75999000  3.65257000  1
  Mo  Mo13  1  5.59484000  5.42202000  3.70474000  1
  Mo  Mo14  1  5.45979000  3.69398000  1.90553000  1
  Mo  Mo15  1  3.60241000  5.38982000  1.81908000  1
