# generated using pymatgen
data_Mo
_symmetry_space_group_name_H-M   'P 1'
_cell_length_a   7.28968789
_cell_length_b   7.28968789
_cell_length_c   3.64484406
_cell_angle_alpha   90.00000000
_cell_angle_beta   90.00000000
_cell_angle_gamma   90.00000000
_symmetry_Int_Tables_number   1
_chemical_formula_structural   Mo
_chemical_formula_sum   Mo16
_cell_volume   193.68537117
_cell_formula_units_Z   16
loop_
 _symmetry_equiv_pos_site_id
 _symmetry_equiv_pos_as_xyz
  1  'x, y, z'
loop_
 _atom_site_type_symbol
 _atom_site_label
 _atom_site_symmetry_multiplicity
 _atom_site_fract_x
 _atom_site_fract_y
 _atom_site_fract_z
 _atom_site_occupancy
  Mo  Mo0  1  0.07505100  7.31411000  3.73087000  1
  Mo  Mo1  1  1.92945000  1.91344000  3.68218000  1
  Mo  Mo2  1  1.75148000  -0.05749520  1.80965000  1
  Mo  Mo3  1  0.12275600  1.82521000  1.88176000  1
  Mo  Mo4  1  3.45050000  7.27333000  -0.01974090  1
  Mo  Mo5  1  5.54494000  1.75273000  -0.02615460  1
  Mo  Mo6  1  5.46362000  -0.05281270  1.81475000  1
  Mo  Mo7  1  3.66364000  1.85659000  1.79942000  1
  Mo  Mo8  1  7.25265000  3.70265000  3.64392000  1
  Mo  Mo9  1  1.81413000  5.41587000  -0.03151060  1
  Mo  Mo10  1  1.83093000  3.71755000  1.81710000  1
  Mo  Mo11  1  -0.06070340  5.50130000  1.84774000  1
  Mo  Mo12  1  3.71437000  3.63012000  3.62118000  1
  Mo  Mo13  1  5.40889000  5.37518000  3.58135000  1
  Mo  Mo14  1  5.44367000  3.65250000  1.76858000  1
  Mo  Mo15  1  3.52893000  5.40374000  1.83574000  1
