# generated using pymatgen
data_Mo
_symmetry_space_group_name_H-M   'P 1'
_cell_length_a   7.28968789
_cell_length_b   7.28968789
_cell_length_c   3.64484406
_cell_angle_alpha   90.00000000
_cell_angle_beta   90.00000000
_cell_angle_gamma   90.00000000
_symmetry_Int_Tables_number   1
_chemical_formula_structural   Mo
_chemical_formula_sum   Mo16
_cell_volume   193.68537117
_cell_formula_units_Z   16
loop_
 _symmetry_equiv_pos_site_id
 _symmetry_equiv_pos_as_xyz
  1  'x, y, z'
loop_
 _atom_site_type_symbol
 _atom_site_label
 _atom_site_symmetry_multiplicity
 _atom_site_fract_x
 _atom_site_fract_y
 _atom_site_fract_z
 _atom_site_occupancy
  Mo  Mo0  1  0.00956281  7.38321000  3.65379000  1
  Mo  Mo1  1  1.93503000  1.77582000  3.56837000  1
  Mo  Mo2  1  1.80901000  0.00914879  1.83396000  1
  Mo  Mo3  1  -0.03263710  1.79474000  1.84940000  1
  Mo  Mo4  1  3.59620000  7.36004000  -0.03928230  1
  Mo  Mo5  1  5.48429000  1.83393000  -0.07880840  1
  Mo  Mo6  1  5.39650000  -0.10709200  1.85241000  1
  Mo  Mo7  1  3.65886000  1.85981000  1.70248000  1
  Mo  Mo8  1  7.31520000  3.61627000  3.64888000  1
  Mo  Mo9  1  1.82396000  5.49492000  -0.02167730  1
  Mo  Mo10  1  1.79777000  3.67703000  1.77243000  1
  Mo  Mo11  1  -0.07826950  5.42107000  1.92287000  1
  Mo  Mo12  1  3.69543000  3.63567000  3.63944000  1
  Mo  Mo13  1  5.49228000  5.40459000  3.74844000  1
  Mo  Mo14  1  5.37792000  3.61926000  1.72416000  1
  Mo  Mo15  1  3.65322000  5.44558000  1.97996000  1
