# generated using pymatgen
data_Mo
_symmetry_space_group_name_H-M   'P 1'
_cell_length_a   7.28968789
_cell_length_b   7.28968789
_cell_length_c   3.64484406
_cell_angle_alpha   90.00000000
_cell_angle_beta   90.00000000
_cell_angle_gamma   90.00000000
_symmetry_Int_Tables_number   1
_chemical_formula_structural   Mo
_chemical_formula_sum   Mo16
_cell_volume   193.68537117
_cell_formula_units_Z   16
loop_
 _symmetry_equiv_pos_site_id
 _symmetry_equiv_pos_as_xyz
  1  'x, y, z'
loop_
 _atom_site_type_symbol
 _atom_site_label
 _atom_site_symmetry_multiplicity
 _atom_site_fract_x
 _atom_site_fract_y
 _atom_site_fract_z
 _atom_site_occupancy
  Mo  Mo0  1  0.09782590  7.21108000  3.59727000  1
  Mo  Mo1  1  1.67225000  1.77526000  3.67279000  1
  Mo  Mo2  1  1.84897000  -0.03711660  1.90224000  1
  Mo  Mo3  1  -0.04094860  1.83950000  1.91172000  1
  Mo  Mo4  1  3.62269000  7.24918000  -0.04572110  1
  Mo  Mo5  1  5.44115000  1.81671000  -0.02611900  1
  Mo  Mo6  1  5.44842000  0.06673490  1.83708000  1
  Mo  Mo7  1  3.45600000  1.79634000  1.83881000  1
  Mo  Mo8  1  7.29521000  3.66575000  3.56831000  1
  Mo  Mo9  1  1.83242000  5.41888000  -0.05852340  1
  Mo  Mo10  1  1.84732000  3.68434000  1.82688000  1
  Mo  Mo11  1  0.06941050  5.40204000  1.71684000  1
  Mo  Mo12  1  3.66569000  3.61780000  3.64615000  1
  Mo  Mo13  1  5.53279000  5.60271000  3.66599000  1
  Mo  Mo14  1  5.49477000  3.64902000  1.86896000  1
  Mo  Mo15  1  3.65032000  5.46576000  1.83415000  1
