# generated using pymatgen
data_Mo
_symmetry_space_group_name_H-M   'P 1'
_cell_length_a   7.28968789
_cell_length_b   7.28968789
_cell_length_c   3.64484406
_cell_angle_alpha   90.00000000
_cell_angle_beta   90.00000000
_cell_angle_gamma   90.00000000
_symmetry_Int_Tables_number   1
_chemical_formula_structural   Mo
_chemical_formula_sum   Mo16
_cell_volume   193.68537117
_cell_formula_units_Z   16
loop_
 _symmetry_equiv_pos_site_id
 _symmetry_equiv_pos_as_xyz
  1  'x, y, z'
loop_
 _atom_site_type_symbol
 _atom_site_label
 _atom_site_symmetry_multiplicity
 _atom_site_fract_x
 _atom_site_fract_y
 _atom_site_fract_z
 _atom_site_occupancy
  Mo  Mo0  1  -0.11345100  7.29955000  3.65755000  1
  Mo  Mo1  1  1.91144000  1.70490000  3.59789000  1
  Mo  Mo2  1  1.79521000  -0.07449740  1.80681000  1
  Mo  Mo3  1  0.02279470  1.93143000  1.86375000  1
  Mo  Mo4  1  3.70625000  7.12882000  0.04825630  1
  Mo  Mo5  1  5.45445000  1.76027000  0.12476500  1
  Mo  Mo6  1  5.38211000  0.08994810  1.86773000  1
  Mo  Mo7  1  3.56951000  1.92278000  1.75452000  1
  Mo  Mo8  1  7.33320000  3.67409000  3.58119000  1
  Mo  Mo9  1  1.85573000  5.49345000  -0.08343090  1
  Mo  Mo10  1  1.90313000  3.66322000  1.65738000  1
  Mo  Mo11  1  -0.06005900  5.28007000  1.88340000  1
  Mo  Mo12  1  3.66019000  3.81665000  3.56324000  1
  Mo  Mo13  1  5.53277000  5.51564000  3.73148000  1
  Mo  Mo14  1  5.36169000  3.60439000  1.92740000  1
  Mo  Mo15  1  3.61935000  5.41328000  1.77491000  1
