# generated using pymatgen
data_Mo
_symmetry_space_group_name_H-M   'P 1'
_cell_length_a   7.27808089
_cell_length_b   7.27808089
_cell_length_c   3.63904047
_cell_angle_alpha   90.00000000
_cell_angle_beta   90.00000000
_cell_angle_gamma   90.00000000
_symmetry_Int_Tables_number   1
_chemical_formula_structural   Mo
_chemical_formula_sum   Mo16
_cell_volume   192.76165285
_cell_formula_units_Z   16
loop_
 _symmetry_equiv_pos_site_id
 _symmetry_equiv_pos_as_xyz
  1  'x, y, z'
loop_
 _atom_site_type_symbol
 _atom_site_label
 _atom_site_symmetry_multiplicity
 _atom_site_fract_x
 _atom_site_fract_y
 _atom_site_fract_z
 _atom_site_occupancy
  Mo  Mo0  1  -0.01298780  7.28392000  0.01277360  1
  Mo  Mo1  1  1.81602000  1.82284000  -0.00612641  1
  Mo  Mo2  1  1.82402000  7.28190000  1.81665000  1
  Mo  Mo3  1  7.28302000  1.80513000  1.83011000  1
  Mo  Mo4  1  3.63279000  7.28656000  3.63364000  1
  Mo  Mo5  1  5.46466000  1.82814000  0.00480700  1
  Mo  Mo6  1  5.44953000  0.00016280  1.82462000  1
  Mo  Mo7  1  3.64289000  1.81250000  1.82336000  1
  Mo  Mo8  1  7.28036000  3.63134000  3.63691000  1
  Mo  Mo9  1  1.81498000  5.45793000  3.63762000  1
  Mo  Mo10  1  1.81320000  3.63206000  1.82265000  1
  Mo  Mo11  1  7.28013000  5.45668000  1.82210000  1
  Mo  Mo12  1  3.64572000  3.62638000  -0.00275989  1
  Mo  Mo13  1  5.46601000  5.47455000  3.63337000  1
  Mo  Mo14  1  5.45317000  3.65137000  1.81261000  1
  Mo  Mo15  1  3.64856000  5.45060000  1.80967000  1
