# generated using pymatgen
data_Mo
_symmetry_space_group_name_H-M   'P 1'
_cell_length_a   7.27806742
_cell_length_b   7.27806742
_cell_length_c   3.63903379
_cell_angle_alpha   90.00000000
_cell_angle_beta   90.00000000
_cell_angle_gamma   90.00000000
_symmetry_Int_Tables_number   1
_chemical_formula_structural   Mo
_chemical_formula_sum   Mo16
_cell_volume   192.76058556
_cell_formula_units_Z   16
loop_
 _symmetry_equiv_pos_site_id
 _symmetry_equiv_pos_as_xyz
  1  'x, y, z'
loop_
 _atom_site_type_symbol
 _atom_site_label
 _atom_site_symmetry_multiplicity
 _atom_site_fract_x
 _atom_site_fract_y
 _atom_site_fract_z
 _atom_site_occupancy
  Mo  Mo0  1  -0.02172740  7.29443000  3.62814000  1
  Mo  Mo1  1  1.83648000  1.81915000  -0.02403530  1
  Mo  Mo2  1  1.79730000  7.26091000  1.83158000  1
  Mo  Mo3  1  7.28044000  1.82366000  1.81218000  1
  Mo  Mo4  1  3.62734000  7.26893000  -0.01123680  1
  Mo  Mo5  1  5.44839000  1.82119000  0.00305407  1
  Mo  Mo6  1  5.45126000  0.01465970  1.81228000  1
  Mo  Mo7  1  3.63857000  1.80992000  1.81368000  1
  Mo  Mo8  1  7.27867000  3.62994000  3.65432000  1
  Mo  Mo9  1  1.85767000  5.44603000  3.65569000  1
  Mo  Mo10  1  1.79552000  3.65128000  1.85026000  1
  Mo  Mo11  1  0.02373670  5.46120000  1.83826000  1
  Mo  Mo12  1  3.65719000  3.64496000  3.64490000  1
  Mo  Mo13  1  5.45297000  5.45022000  3.63705000  1
  Mo  Mo14  1  5.47113000  3.64255000  1.81530000  1
  Mo  Mo15  1  3.62906000  5.46303000  1.78960000  1
