# generated using pymatgen
data_Mo
_symmetry_space_group_name_H-M   'P 1'
_cell_length_a   7.28968789
_cell_length_b   7.28968789
_cell_length_c   3.64484406
_cell_angle_alpha   90.00000000
_cell_angle_beta   90.00000000
_cell_angle_gamma   90.00000000
_symmetry_Int_Tables_number   1
_chemical_formula_structural   Mo
_chemical_formula_sum   Mo16
_cell_volume   193.68537117
_cell_formula_units_Z   16
loop_
 _symmetry_equiv_pos_site_id
 _symmetry_equiv_pos_as_xyz
  1  'x, y, z'
loop_
 _atom_site_type_symbol
 _atom_site_label
 _atom_site_symmetry_multiplicity
 _atom_site_fract_x
 _atom_site_fract_y
 _atom_site_fract_z
 _atom_site_occupancy
  Mo  Mo0  1  -0.08205990  7.20295000  3.63184000  1
  Mo  Mo1  1  1.76795000  1.82820000  3.67743000  1
  Mo  Mo2  1  1.88985000  0.03240530  1.73424000  1
  Mo  Mo3  1  -0.02986360  1.72256000  1.82416000  1
  Mo  Mo4  1  3.66866000  7.32421000  -0.06086580  1
  Mo  Mo5  1  5.39263000  1.86433000  -0.01630050  1
  Mo  Mo6  1  5.47696000  0.07059080  1.80989000  1
  Mo  Mo7  1  3.62459000  1.75076000  1.83118000  1
  Mo  Mo8  1  7.33082000  3.71198000  3.68822000  1
  Mo  Mo9  1  1.82148000  5.39415000  0.04223600  1
  Mo  Mo10  1  1.86070000  3.60829000  1.92397000  1
  Mo  Mo11  1  0.07185480  5.53907000  1.83218000  1
  Mo  Mo12  1  3.54999000  3.62885000  3.64523000  1
  Mo  Mo13  1  5.51040000  5.38949000  3.60087000  1
  Mo  Mo14  1  5.47446000  3.58051000  1.78535000  1
  Mo  Mo15  1  3.60589000  5.57565000  1.80721000  1
