# generated using pymatgen
data_Mo
_symmetry_space_group_name_H-M   'P 1'
_cell_length_a   7.28810946
_cell_length_b   7.28810946
_cell_length_c   3.64405465
_cell_angle_alpha   90.00000000
_cell_angle_beta   90.00000000
_cell_angle_gamma   90.00000000
_symmetry_Int_Tables_number   1
_chemical_formula_structural   Mo
_chemical_formula_sum   Mo16
_cell_volume   193.55957265
_cell_formula_units_Z   16
loop_
 _symmetry_equiv_pos_site_id
 _symmetry_equiv_pos_as_xyz
  1  'x, y, z'
loop_
 _atom_site_type_symbol
 _atom_site_label
 _atom_site_symmetry_multiplicity
 _atom_site_fract_x
 _atom_site_fract_y
 _atom_site_fract_z
 _atom_site_occupancy
  Mo  Mo0  1  7.33509000  7.23361000  -0.03048450  1
  Mo  Mo1  1  1.90104000  1.79353000  -0.07680990  1
  Mo  Mo2  1  1.84037000  -0.06058570  1.83884000  1
  Mo  Mo3  1  0.03034360  1.82277000  1.75821000  1
  Mo  Mo4  1  3.54972000  7.30058000  0.00094813  1
  Mo  Mo5  1  5.55212000  1.87508000  3.58053000  1
  Mo  Mo6  1  5.36486000  7.20991000  1.81321000  1
  Mo  Mo7  1  3.66112000  1.84583000  1.70636000  1
  Mo  Mo8  1  7.22019000  3.75176000  3.71272000  1
  Mo  Mo9  1  1.78850000  5.38653000  3.77979000  1
  Mo  Mo10  1  1.77253000  3.61261000  1.83808000  1
  Mo  Mo11  1  0.01514350  5.38803000  1.87217000  1
  Mo  Mo12  1  3.62911000  3.77298000  3.59711000  1
  Mo  Mo13  1  5.45952000  5.51475000  3.65055000  1
  Mo  Mo14  1  5.51678000  3.66232000  1.82369000  1
  Mo  Mo15  1  3.58756000  5.40239000  1.89114000  1
