# generated using pymatgen
data_Mo
_symmetry_space_group_name_H-M   'P 1'
_cell_length_a   7.28810946
_cell_length_b   7.28810946
_cell_length_c   3.64405465
_cell_angle_alpha   90.00000000
_cell_angle_beta   90.00000000
_cell_angle_gamma   90.00000000
_symmetry_Int_Tables_number   1
_chemical_formula_structural   Mo
_chemical_formula_sum   Mo16
_cell_volume   193.55957265
_cell_formula_units_Z   16
loop_
 _symmetry_equiv_pos_site_id
 _symmetry_equiv_pos_as_xyz
  1  'x, y, z'
loop_
 _atom_site_type_symbol
 _atom_site_label
 _atom_site_symmetry_multiplicity
 _atom_site_fract_x
 _atom_site_fract_y
 _atom_site_fract_z
 _atom_site_occupancy
  Mo  Mo0  1  7.24229000  7.42853000  -0.11517500  1
  Mo  Mo1  1  1.89818000  1.93311000  0.04121550  1
  Mo  Mo2  1  1.71475000  -0.01410520  1.78393000  1
  Mo  Mo3  1  0.00231163  1.88471000  1.83512000  1
  Mo  Mo4  1  3.54787000  7.22637000  -0.03553400  1
  Mo  Mo5  1  5.47902000  1.78328000  3.64711000  1
  Mo  Mo6  1  5.55507000  7.35201000  1.77408000  1
  Mo  Mo7  1  3.66974000  1.71882000  1.85549000  1
  Mo  Mo8  1  7.28953000  3.56229000  3.62950000  1
  Mo  Mo9  1  1.71430000  5.41377000  3.70723000  1
  Mo  Mo10  1  1.85994000  3.49699000  1.81596000  1
  Mo  Mo11  1  0.00745402  5.36147000  1.77495000  1
  Mo  Mo12  1  3.76555000  3.66592000  3.65798000  1
  Mo  Mo13  1  5.49499000  5.44727000  3.68393000  1
  Mo  Mo14  1  5.44876000  3.68551000  1.93977000  1
  Mo  Mo15  1  3.53425000  5.56617000  1.76050000  1
