# generated using pymatgen
data_Mo
_symmetry_space_group_name_H-M   'P 1'
_cell_length_a   7.28810946
_cell_length_b   7.28810946
_cell_length_c   3.64405465
_cell_angle_alpha   90.00000000
_cell_angle_beta   90.00000000
_cell_angle_gamma   90.00000000
_symmetry_Int_Tables_number   1
_chemical_formula_structural   Mo
_chemical_formula_sum   Mo16
_cell_volume   193.55957265
_cell_formula_units_Z   16
loop_
 _symmetry_equiv_pos_site_id
 _symmetry_equiv_pos_as_xyz
  1  'x, y, z'
loop_
 _atom_site_type_symbol
 _atom_site_label
 _atom_site_symmetry_multiplicity
 _atom_site_fract_x
 _atom_site_fract_y
 _atom_site_fract_z
 _atom_site_occupancy
  Mo  Mo0  1  7.19245000  7.32133000  -0.03458140  1
  Mo  Mo1  1  1.76238000  1.85645000  0.05101680  1
  Mo  Mo2  1  1.70127000  -0.10348800  1.82263000  1
  Mo  Mo3  1  0.01548850  1.81977000  1.82697000  1
  Mo  Mo4  1  3.62816000  7.33802000  -0.02427570  1
  Mo  Mo5  1  5.44053000  1.80529000  3.69200000  1
  Mo  Mo6  1  5.49843000  7.25428000  1.86496000  1
  Mo  Mo7  1  3.65890000  1.74608000  1.91873000  1
  Mo  Mo8  1  7.37993000  3.64163000  3.67026000  1
  Mo  Mo9  1  1.87370000  5.45276000  3.63968000  1
  Mo  Mo10  1  1.93750000  3.59832000  1.90749000  1
  Mo  Mo11  1  -0.01536720  5.43152000  1.71187000  1
  Mo  Mo12  1  3.65473000  3.72209000  3.55161000  1
  Mo  Mo13  1  5.50855000  5.45012000  3.54827000  1
  Mo  Mo14  1  5.44310000  3.65127000  1.78761000  1
  Mo  Mo15  1  3.54427000  5.52667000  1.82181000  1
