# generated using pymatgen
data_Mo
_symmetry_space_group_name_H-M   'P 1'
_cell_length_a   7.28810946
_cell_length_b   7.28810946
_cell_length_c   3.64405465
_cell_angle_alpha   90.00000000
_cell_angle_beta   90.00000000
_cell_angle_gamma   90.00000000
_symmetry_Int_Tables_number   1
_chemical_formula_structural   Mo
_chemical_formula_sum   Mo16
_cell_volume   193.55957265
_cell_formula_units_Z   16
loop_
 _symmetry_equiv_pos_site_id
 _symmetry_equiv_pos_as_xyz
  1  'x, y, z'
loop_
 _atom_site_type_symbol
 _atom_site_label
 _atom_site_symmetry_multiplicity
 _atom_site_fract_x
 _atom_site_fract_y
 _atom_site_fract_z
 _atom_site_occupancy
  Mo  Mo0  1  7.34944000  7.26107000  0.08399030  1
  Mo  Mo1  1  1.72374000  1.92659000  -0.10949900  1
  Mo  Mo2  1  1.96876000  0.04714740  1.96599000  1
  Mo  Mo3  1  0.07921350  1.77465000  1.82104000  1
  Mo  Mo4  1  3.50829000  7.30965000  0.10271400  1
  Mo  Mo5  1  5.51524000  1.82387000  3.57510000  1
  Mo  Mo6  1  5.38385000  7.27099000  1.81606000  1
  Mo  Mo7  1  3.61888000  1.92151000  1.70131000  1
  Mo  Mo8  1  7.21428000  3.68760000  3.59780000  1
  Mo  Mo9  1  1.83211000  5.40393000  3.68020000  1
  Mo  Mo10  1  1.80970000  3.61088000  1.84205000  1
  Mo  Mo11  1  -0.07221180  5.45625000  1.93443000  1
  Mo  Mo12  1  3.67650000  3.54028000  3.54092000  1
  Mo  Mo13  1  5.44823000  5.37400000  3.68702000  1
  Mo  Mo14  1  5.51046000  3.69336000  1.74598000  1
  Mo  Mo15  1  3.65751000  5.41033000  1.77095000  1
