# generated using pymatgen
data_Mo
_symmetry_space_group_name_H-M   'P 1'
_cell_length_a   7.28810946
_cell_length_b   7.28810946
_cell_length_c   3.64405465
_cell_angle_alpha   90.00000000
_cell_angle_beta   90.00000000
_cell_angle_gamma   90.00000000
_symmetry_Int_Tables_number   1
_chemical_formula_structural   Mo
_chemical_formula_sum   Mo16
_cell_volume   193.55957265
_cell_formula_units_Z   16
loop_
 _symmetry_equiv_pos_site_id
 _symmetry_equiv_pos_as_xyz
  1  'x, y, z'
loop_
 _atom_site_type_symbol
 _atom_site_label
 _atom_site_symmetry_multiplicity
 _atom_site_fract_x
 _atom_site_fract_y
 _atom_site_fract_z
 _atom_site_occupancy
  Mo  Mo0  1  7.32792000  7.28909000  0.06187880  1
  Mo  Mo1  1  1.83351000  1.82196000  0.05018200  1
  Mo  Mo2  1  1.79737000  0.01897280  1.86655000  1
  Mo  Mo3  1  -0.01527810  1.83766000  1.84226000  1
  Mo  Mo4  1  3.60936000  7.21802000  -0.04532960  1
  Mo  Mo5  1  5.56013000  1.70066000  3.67887000  1
  Mo  Mo6  1  5.38030000  7.25970000  1.85093000  1
  Mo  Mo7  1  3.60440000  1.77259000  1.84324000  1
  Mo  Mo8  1  7.34509000  3.76140000  3.59863000  1
  Mo  Mo9  1  1.83248000  5.41121000  3.58384000  1
  Mo  Mo10  1  1.74895000  3.57310000  1.80259000  1
  Mo  Mo11  1  0.12665900  5.50442000  1.81330000  1
  Mo  Mo12  1  3.56941000  3.78608000  3.63388000  1
  Mo  Mo13  1  5.48673000  5.52729000  3.67995000  1
  Mo  Mo14  1  5.45630000  3.62143000  1.75748000  1
  Mo  Mo15  1  3.56066000  5.40853000  1.73780000  1
