# generated using pymatgen
data_Mo
_symmetry_space_group_name_H-M   'P 1'
_cell_length_a   7.28810946
_cell_length_b   7.28810946
_cell_length_c   3.64405465
_cell_angle_alpha   90.00000000
_cell_angle_beta   90.00000000
_cell_angle_gamma   90.00000000
_symmetry_Int_Tables_number   1
_chemical_formula_structural   Mo
_chemical_formula_sum   Mo16
_cell_volume   193.55957265
_cell_formula_units_Z   16
loop_
 _symmetry_equiv_pos_site_id
 _symmetry_equiv_pos_as_xyz
  1  'x, y, z'
loop_
 _atom_site_type_symbol
 _atom_site_label
 _atom_site_symmetry_multiplicity
 _atom_site_fract_x
 _atom_site_fract_y
 _atom_site_fract_z
 _atom_site_occupancy
  Mo  Mo0  1  7.36659000  7.34975000  -0.01862880  1
  Mo  Mo1  1  1.86149000  1.69818000  0.05921370  1
  Mo  Mo2  1  1.87491000  -0.06815870  1.80883000  1
  Mo  Mo3  1  0.06170490  1.78552000  1.78206000  1
  Mo  Mo4  1  3.55642000  7.39750000  -0.06835530  1
  Mo  Mo5  1  5.48217000  1.80203000  3.48481000  1
  Mo  Mo6  1  5.45060000  7.19547000  1.84326000  1
  Mo  Mo7  1  3.66540000  1.83979000  1.77753000  1
  Mo  Mo8  1  7.23279000  3.59322000  3.68907000  1
  Mo  Mo9  1  1.77618000  5.43262000  3.75932000  1
  Mo  Mo10  1  1.73280000  3.65597000  1.77968000  1
  Mo  Mo11  1  -0.03578450  5.60212000  1.90586000  1
  Mo  Mo12  1  3.56647000  3.56069000  3.63659000  1
  Mo  Mo13  1  5.35470000  5.62429000  3.67517000  1
  Mo  Mo14  1  5.56380000  3.65020000  1.79637000  1
  Mo  Mo15  1  3.71377000  5.39292000  1.84526000  1
