# generated using pymatgen
data_Mo
_symmetry_space_group_name_H-M   'P 1'
_cell_length_a   7.28810946
_cell_length_b   7.28810946
_cell_length_c   3.64405465
_cell_angle_alpha   90.00000000
_cell_angle_beta   90.00000000
_cell_angle_gamma   90.00000000
_symmetry_Int_Tables_number   1
_chemical_formula_structural   Mo
_chemical_formula_sum   Mo16
_cell_volume   193.55957265
_cell_formula_units_Z   16
loop_
 _symmetry_equiv_pos_site_id
 _symmetry_equiv_pos_as_xyz
  1  'x, y, z'
loop_
 _atom_site_type_symbol
 _atom_site_label
 _atom_site_symmetry_multiplicity
 _atom_site_fract_x
 _atom_site_fract_y
 _atom_site_fract_z
 _atom_site_occupancy
  Mo  Mo0  1  7.20172000  7.18087000  -0.00936974  1
  Mo  Mo1  1  1.81943000  1.72361000  -0.02215450  1
  Mo  Mo2  1  1.86954000  -0.02252780  1.84868000  1
  Mo  Mo3  1  -0.00272377  1.69264000  1.84095000  1
  Mo  Mo4  1  3.67595000  7.30239000  0.05447060  1
  Mo  Mo5  1  5.43503000  1.82310000  3.66400000  1
  Mo  Mo6  1  5.43698000  7.31809000  1.78149000  1
  Mo  Mo7  1  3.76191000  1.88883000  1.74603000  1
  Mo  Mo8  1  7.21670000  3.77051000  3.64080000  1
  Mo  Mo9  1  1.83484000  5.47637000  3.66704000  1
  Mo  Mo10  1  1.84287000  3.58594000  1.91742000  1
  Mo  Mo11  1  0.01714780  5.49912000  1.79867000  1
  Mo  Mo12  1  3.66434000  3.72506000  3.60779000  1
  Mo  Mo13  1  5.40085000  5.39341000  3.64129000  1
  Mo  Mo14  1  5.48343000  3.67930000  1.83868000  1
  Mo  Mo15  1  3.56597000  5.47540000  1.74029000  1
