# generated using pymatgen
data_Mo
_symmetry_space_group_name_H-M   'P 1'
_cell_length_a   7.28810946
_cell_length_b   7.28810946
_cell_length_c   3.64405465
_cell_angle_alpha   90.00000000
_cell_angle_beta   90.00000000
_cell_angle_gamma   90.00000000
_symmetry_Int_Tables_number   1
_chemical_formula_structural   Mo
_chemical_formula_sum   Mo16
_cell_volume   193.55957265
_cell_formula_units_Z   16
loop_
 _symmetry_equiv_pos_site_id
 _symmetry_equiv_pos_as_xyz
  1  'x, y, z'
loop_
 _atom_site_type_symbol
 _atom_site_label
 _atom_site_symmetry_multiplicity
 _atom_site_fract_x
 _atom_site_fract_y
 _atom_site_fract_z
 _atom_site_occupancy
  Mo  Mo0  1  7.35719000  7.24837000  -0.02215990  1
  Mo  Mo1  1  1.82977000  1.78823000  0.07776210  1
  Mo  Mo2  1  1.75769000  -0.00422745  1.81355000  1
  Mo  Mo3  1  -0.11210400  1.76882000  1.81631000  1
  Mo  Mo4  1  3.61060000  7.43816000  -0.14130800  1
  Mo  Mo5  1  5.43907000  1.84861000  3.64980000  1
  Mo  Mo6  1  5.39498000  7.29248000  1.81265000  1
  Mo  Mo7  1  3.62434000  1.86593000  1.93901000  1
  Mo  Mo8  1  7.30598000  3.66528000  3.67299000  1
  Mo  Mo9  1  1.88627000  5.40942000  3.67722000  1
  Mo  Mo10  1  1.73288000  3.65180000  1.68542000  1
  Mo  Mo11  1  0.11448600  5.52746000  1.75029000  1
  Mo  Mo12  1  3.71954000  3.56907000  3.69047000  1
  Mo  Mo13  1  5.41754000  5.50221000  3.57083000  1
  Mo  Mo14  1  5.50542000  3.61069000  1.87016000  1
  Mo  Mo15  1  3.64035000  5.32981000  1.89307000  1
