# generated using pymatgen
data_Mo
_symmetry_space_group_name_H-M   'P 1'
_cell_length_a   7.28810946
_cell_length_b   7.28810946
_cell_length_c   3.64405465
_cell_angle_alpha   90.00000000
_cell_angle_beta   90.00000000
_cell_angle_gamma   90.00000000
_symmetry_Int_Tables_number   1
_chemical_formula_structural   Mo
_chemical_formula_sum   Mo16
_cell_volume   193.55957265
_cell_formula_units_Z   16
loop_
 _symmetry_equiv_pos_site_id
 _symmetry_equiv_pos_as_xyz
  1  'x, y, z'
loop_
 _atom_site_type_symbol
 _atom_site_label
 _atom_site_symmetry_multiplicity
 _atom_site_fract_x
 _atom_site_fract_y
 _atom_site_fract_z
 _atom_site_occupancy
  Mo  Mo0  1  7.34491000  7.38016000  -0.02492610  1
  Mo  Mo1  1  1.84178000  1.76505000  -0.00725705  1
  Mo  Mo2  1  1.68983000  0.12439300  1.80984000  1
  Mo  Mo3  1  0.00654614  1.95893000  1.83260000  1
  Mo  Mo4  1  3.62469000  7.28118000  0.01046740  1
  Mo  Mo5  1  5.46619000  1.84482000  3.65824000  1
  Mo  Mo6  1  5.44753000  7.23380000  1.74389000  1
  Mo  Mo7  1  3.74085000  1.75663000  1.84117000  1
  Mo  Mo8  1  7.24508000  3.47062000  3.74943000  1
  Mo  Mo9  1  1.70749000  5.38404000  3.52488000  1
  Mo  Mo10  1  1.84500000  3.58648000  1.87302000  1
  Mo  Mo11  1  -0.07784720  5.35083000  1.85034000  1
  Mo  Mo12  1  3.63337000  3.65135000  3.68524000  1
  Mo  Mo13  1  5.54464000  5.55342000  3.58457000  1
  Mo  Mo14  1  5.48964000  3.65987000  1.79946000  1
  Mo  Mo15  1  3.67431000  5.51055000  1.82508000  1
