# generated using pymatgen
data_Mo
_symmetry_space_group_name_H-M   'P 1'
_cell_length_a   7.27806742
_cell_length_b   7.27806742
_cell_length_c   3.63903379
_cell_angle_alpha   90.00000000
_cell_angle_beta   90.00000000
_cell_angle_gamma   90.00000000
_symmetry_Int_Tables_number   1
_chemical_formula_structural   Mo
_chemical_formula_sum   Mo16
_cell_volume   192.76058556
_cell_formula_units_Z   16
loop_
 _symmetry_equiv_pos_site_id
 _symmetry_equiv_pos_as_xyz
  1  'x, y, z'
loop_
 _atom_site_type_symbol
 _atom_site_label
 _atom_site_symmetry_multiplicity
 _atom_site_fract_x
 _atom_site_fract_y
 _atom_site_fract_z
 _atom_site_occupancy
  Mo  Mo0  1  0.02256690  7.29715000  3.62737000  1
  Mo  Mo1  1  1.81993000  1.82601000  0.01490810  1
  Mo  Mo2  1  1.82614000  7.26839000  1.83059000  1
  Mo  Mo3  1  7.26043000  1.81316000  1.82798000  1
  Mo  Mo4  1  3.62197000  7.27833000  -0.00866671  1
  Mo  Mo5  1  5.46851000  1.80744000  0.00876133  1
  Mo  Mo6  1  5.44560000  0.01417640  1.81778000  1
  Mo  Mo7  1  3.65904000  1.81449000  1.80110000  1
  Mo  Mo8  1  7.27353000  3.64311000  3.61566000  1
  Mo  Mo9  1  1.82609000  5.45512000  3.65213000  1
  Mo  Mo10  1  1.81533000  3.64160000  1.78370000  1
  Mo  Mo11  1  -0.00598517  5.46282000  1.83077000  1
  Mo  Mo12  1  3.63646000  3.65823000  3.66707000  1
  Mo  Mo13  1  5.47308000  5.44878000  3.64029000  1
  Mo  Mo14  1  5.43868000  3.62834000  1.82334000  1
  Mo  Mo15  1  3.64263000  5.44491000  1.81826000  1
