# generated using pymatgen
data_Mo
_symmetry_space_group_name_H-M   'P 1'
_cell_length_a   7.28810946
_cell_length_b   7.28810946
_cell_length_c   3.64405465
_cell_angle_alpha   90.00000000
_cell_angle_beta   90.00000000
_cell_angle_gamma   90.00000000
_symmetry_Int_Tables_number   1
_chemical_formula_structural   Mo
_chemical_formula_sum   Mo16
_cell_volume   193.55957265
_cell_formula_units_Z   16
loop_
 _symmetry_equiv_pos_site_id
 _symmetry_equiv_pos_as_xyz
  1  'x, y, z'
loop_
 _atom_site_type_symbol
 _atom_site_label
 _atom_site_symmetry_multiplicity
 _atom_site_fract_x
 _atom_site_fract_y
 _atom_site_fract_z
 _atom_site_occupancy
  Mo  Mo0  1  7.28647000  7.32678000  0.01293970  1
  Mo  Mo1  1  1.90140000  1.78440000  0.03819790  1
  Mo  Mo2  1  1.70832000  0.08427470  1.85555000  1
  Mo  Mo3  1  -0.12129000  1.81658000  1.80853000  1
  Mo  Mo4  1  3.58056000  7.33008000  -0.02594110  1
  Mo  Mo5  1  5.38124000  1.89329000  3.53016000  1
  Mo  Mo6  1  5.46776000  7.28767000  1.75280000  1
  Mo  Mo7  1  3.57369000  1.82332000  1.87243000  1
  Mo  Mo8  1  7.42127000  3.57066000  3.68347000  1
  Mo  Mo9  1  1.83670000  5.49267000  3.70921000  1
  Mo  Mo10  1  1.90286000  3.77375000  1.76646000  1
  Mo  Mo11  1  0.01237440  5.34410000  1.81360000  1
  Mo  Mo12  1  3.69125000  3.62972000  3.72275000  1
  Mo  Mo13  1  5.48094000  5.33081000  3.65736000  1
  Mo  Mo14  1  5.44039000  3.61967000  1.79989000  1
  Mo  Mo15  1  3.66008000  5.40433000  1.75866000  1
