# generated using pymatgen
data_Mo
_symmetry_space_group_name_H-M   'P 1'
_cell_length_a   7.28810946
_cell_length_b   7.28810946
_cell_length_c   3.64405465
_cell_angle_alpha   90.00000000
_cell_angle_beta   90.00000000
_cell_angle_gamma   90.00000000
_symmetry_Int_Tables_number   1
_chemical_formula_structural   Mo
_chemical_formula_sum   Mo16
_cell_volume   193.55957265
_cell_formula_units_Z   16
loop_
 _symmetry_equiv_pos_site_id
 _symmetry_equiv_pos_as_xyz
  1  'x, y, z'
loop_
 _atom_site_type_symbol
 _atom_site_label
 _atom_site_symmetry_multiplicity
 _atom_site_fract_x
 _atom_site_fract_y
 _atom_site_fract_z
 _atom_site_occupancy
  Mo  Mo0  1  7.23090000  7.28292000  0.01825960  1
  Mo  Mo1  1  1.75363000  1.89554000  0.00271906  1
  Mo  Mo2  1  1.86229000  -0.02285730  1.84301000  1
  Mo  Mo3  1  0.09914940  1.87343000  1.78160000  1
  Mo  Mo4  1  3.71609000  7.19754000  0.07017820  1
  Mo  Mo5  1  5.42998000  1.86117000  3.67112000  1
  Mo  Mo6  1  5.47516000  7.28577000  1.85492000  1
  Mo  Mo7  1  3.62282000  1.75303000  1.81826000  1
  Mo  Mo8  1  7.25123000  3.61053000  3.60588000  1
  Mo  Mo9  1  1.75663000  5.44871000  3.51130000  1
  Mo  Mo10  1  1.80839000  3.50083000  1.85948000  1
  Mo  Mo11  1  -0.00846206  5.44610000  1.90404000  1
  Mo  Mo12  1  3.56046000  3.67647000  3.56805000  1
  Mo  Mo13  1  5.57369000  5.49826000  3.63484000  1
  Mo  Mo14  1  5.44134000  3.68557000  1.78991000  1
  Mo  Mo15  1  3.65070000  5.51909000  1.82249000  1
