# generated using pymatgen
data_Mo
_symmetry_space_group_name_H-M   'P 1'
_cell_length_a   7.28810946
_cell_length_b   7.28810946
_cell_length_c   3.64405465
_cell_angle_alpha   90.00000000
_cell_angle_beta   90.00000000
_cell_angle_gamma   90.00000000
_symmetry_Int_Tables_number   1
_chemical_formula_structural   Mo
_chemical_formula_sum   Mo16
_cell_volume   193.55957265
_cell_formula_units_Z   16
loop_
 _symmetry_equiv_pos_site_id
 _symmetry_equiv_pos_as_xyz
  1  'x, y, z'
loop_
 _atom_site_type_symbol
 _atom_site_label
 _atom_site_symmetry_multiplicity
 _atom_site_fract_x
 _atom_site_fract_y
 _atom_site_fract_z
 _atom_site_occupancy
  Mo  Mo0  1  7.28995000  7.33298000  -0.01685080  1
  Mo  Mo1  1  1.89689000  1.65487000  0.02780120  1
  Mo  Mo2  1  1.72018000  0.03533380  1.81368000  1
  Mo  Mo3  1  -0.06808530  1.86285000  1.80395000  1
  Mo  Mo4  1  3.66198000  7.26949000  -0.14010000  1
  Mo  Mo5  1  5.42375000  1.87361000  3.62079000  1
  Mo  Mo6  1  5.52035000  7.25409000  1.72378000  1
  Mo  Mo7  1  3.59314000  1.78654000  1.88893000  1
  Mo  Mo8  1  7.33365000  3.70404000  3.67674000  1
  Mo  Mo9  1  1.76740000  5.39436000  3.71476000  1
  Mo  Mo10  1  1.76457000  3.59532000  1.76389000  1
  Mo  Mo11  1  -0.02766210  5.44093000  1.81937000  1
  Mo  Mo12  1  3.65355000  3.62433000  3.74832000  1
  Mo  Mo13  1  5.51744000  5.46927000  3.68622000  1
  Mo  Mo14  1  5.48353000  3.76144000  1.90071000  1
  Mo  Mo15  1  3.69337000  5.45264000  1.72406000  1
