# generated using pymatgen
data_Mo
_symmetry_space_group_name_H-M   'P 1'
_cell_length_a   7.28810946
_cell_length_b   7.28810946
_cell_length_c   3.64405465
_cell_angle_alpha   90.00000000
_cell_angle_beta   90.00000000
_cell_angle_gamma   90.00000000
_symmetry_Int_Tables_number   1
_chemical_formula_structural   Mo
_chemical_formula_sum   Mo16
_cell_volume   193.55957265
_cell_formula_units_Z   16
loop_
 _symmetry_equiv_pos_site_id
 _symmetry_equiv_pos_as_xyz
  1  'x, y, z'
loop_
 _atom_site_type_symbol
 _atom_site_label
 _atom_site_symmetry_multiplicity
 _atom_site_fract_x
 _atom_site_fract_y
 _atom_site_fract_z
 _atom_site_occupancy
  Mo  Mo0  1  7.27470000  7.26085000  -0.07777720  1
  Mo  Mo1  1  1.84595000  1.73803000  -0.00377302  1
  Mo  Mo2  1  1.75498000  -0.06020250  1.86369000  1
  Mo  Mo3  1  0.02736130  1.89749000  1.79525000  1
  Mo  Mo4  1  3.63007000  7.27471000  -0.01729370  1
  Mo  Mo5  1  5.54955000  1.86526000  3.59652000  1
  Mo  Mo6  1  5.52800000  7.38484000  1.77635000  1
  Mo  Mo7  1  3.64254000  1.69625000  1.79288000  1
  Mo  Mo8  1  7.43070000  3.60254000  3.62167000  1
  Mo  Mo9  1  1.72258000  5.50122000  3.71249000  1
  Mo  Mo10  1  1.80428000  3.69167000  1.84299000  1
  Mo  Mo11  1  -0.02985440  5.48679000  1.82924000  1
  Mo  Mo12  1  3.46595000  3.59866000  3.61177000  1
  Mo  Mo13  1  5.37143000  5.52728000  3.74215000  1
  Mo  Mo14  1  5.49294000  3.56066000  1.84831000  1
  Mo  Mo15  1  3.71283000  5.48605000  1.82157000  1
