# generated using pymatgen
data_Mo
_symmetry_space_group_name_H-M   'P 1'
_cell_length_a   7.28810946
_cell_length_b   7.28810946
_cell_length_c   3.64405465
_cell_angle_alpha   90.00000000
_cell_angle_beta   90.00000000
_cell_angle_gamma   90.00000000
_symmetry_Int_Tables_number   1
_chemical_formula_structural   Mo
_chemical_formula_sum   Mo16
_cell_volume   193.55957265
_cell_formula_units_Z   16
loop_
 _symmetry_equiv_pos_site_id
 _symmetry_equiv_pos_as_xyz
  1  'x, y, z'
loop_
 _atom_site_type_symbol
 _atom_site_label
 _atom_site_symmetry_multiplicity
 _atom_site_fract_x
 _atom_site_fract_y
 _atom_site_fract_z
 _atom_site_occupancy
  Mo  Mo0  1  7.21730000  7.23546000  0.00382907  1
  Mo  Mo1  1  1.85212000  1.78588000  0.09512510  1
  Mo  Mo2  1  1.95109000  0.00734327  1.83200000  1
  Mo  Mo3  1  0.07352740  1.84519000  1.81020000  1
  Mo  Mo4  1  3.60536000  7.19645000  -0.03459170  1
  Mo  Mo5  1  5.38191000  1.70633000  3.67594000  1
  Mo  Mo6  1  5.41965000  7.35566000  1.90443000  1
  Mo  Mo7  1  3.62051000  1.84025000  1.86025000  1
  Mo  Mo8  1  7.26901000  3.72099000  3.57259000  1
  Mo  Mo9  1  1.77341000  5.43453000  3.66886000  1
  Mo  Mo10  1  1.86098000  3.54376000  1.80590000  1
  Mo  Mo11  1  -0.01358110  5.50585000  1.72092000  1
  Mo  Mo12  1  3.69536000  3.68234000  3.63766000  1
  Mo  Mo13  1  5.37836000  5.43043000  3.59471000  1
  Mo  Mo14  1  5.49740000  3.72857000  1.83475000  1
  Mo  Mo15  1  3.64160000  5.49309000  1.77349000  1
