# generated using pymatgen
data_Mo
_symmetry_space_group_name_H-M   'P 1'
_cell_length_a   7.28810946
_cell_length_b   7.28810946
_cell_length_c   3.64405465
_cell_angle_alpha   90.00000000
_cell_angle_beta   90.00000000
_cell_angle_gamma   90.00000000
_symmetry_Int_Tables_number   1
_chemical_formula_structural   Mo
_chemical_formula_sum   Mo16
_cell_volume   193.55957265
_cell_formula_units_Z   16
loop_
 _symmetry_equiv_pos_site_id
 _symmetry_equiv_pos_as_xyz
  1  'x, y, z'
loop_
 _atom_site_type_symbol
 _atom_site_label
 _atom_site_symmetry_multiplicity
 _atom_site_fract_x
 _atom_site_fract_y
 _atom_site_fract_z
 _atom_site_occupancy
  Mo  Mo0  1  7.28608000  7.21443000  -0.04516810  1
  Mo  Mo1  1  1.82851000  1.76036000  0.08943910  1
  Mo  Mo2  1  1.89085000  -0.00038675  1.86448000  1
  Mo  Mo3  1  0.09248860  1.76358000  1.82642000  1
  Mo  Mo4  1  3.58665000  7.23890000  -0.02571360  1
  Mo  Mo5  1  5.39073000  1.69840000  3.64968000  1
  Mo  Mo6  1  5.43721000  7.36733000  1.89051000  1
  Mo  Mo7  1  3.63989000  1.89513000  1.86160000  1
  Mo  Mo8  1  7.27768000  3.66115000  3.64646000  1
  Mo  Mo9  1  1.77589000  5.48226000  3.64267000  1
  Mo  Mo10  1  1.87530000  3.60487000  1.81037000  1
  Mo  Mo11  1  -0.02096580  5.50402000  1.77320000  1
  Mo  Mo12  1  3.64942000  3.73062000  3.57774000  1
  Mo  Mo13  1  5.44527000  5.39518000  3.57751000  1
  Mo  Mo14  1  5.47673000  3.70376000  1.84616000  1
  Mo  Mo15  1  3.59227000  5.49252000  1.77070000  1
