# generated using pymatgen
data_Mo
_symmetry_space_group_name_H-M   'P 1'
_cell_length_a   7.28810946
_cell_length_b   7.28810946
_cell_length_c   3.64405465
_cell_angle_alpha   90.00000000
_cell_angle_beta   90.00000000
_cell_angle_gamma   90.00000000
_symmetry_Int_Tables_number   1
_chemical_formula_structural   Mo
_chemical_formula_sum   Mo16
_cell_volume   193.55957265
_cell_formula_units_Z   16
loop_
 _symmetry_equiv_pos_site_id
 _symmetry_equiv_pos_as_xyz
  1  'x, y, z'
loop_
 _atom_site_type_symbol
 _atom_site_label
 _atom_site_symmetry_multiplicity
 _atom_site_fract_x
 _atom_site_fract_y
 _atom_site_fract_z
 _atom_site_occupancy
  Mo  Mo0  1  7.25710000  7.28562000  -0.02678860  1
  Mo  Mo1  1  1.88105000  1.80559000  0.05172150  1
  Mo  Mo2  1  1.80142000  -0.03471330  1.90409000  1
  Mo  Mo3  1  -0.04630030  1.84137000  1.83970000  1
  Mo  Mo4  1  3.62243000  7.33286000  -0.05754310  1
  Mo  Mo5  1  5.46620000  1.81366000  3.65403000  1
  Mo  Mo6  1  5.50522000  7.36707000  1.72123000  1
  Mo  Mo7  1  3.60409000  1.89218000  1.86938000  1
  Mo  Mo8  1  7.29147000  3.47798000  3.61649000  1
  Mo  Mo9  1  1.76478000  5.50196000  3.63715000  1
  Mo  Mo10  1  1.88604000  3.67804000  1.87382000  1
  Mo  Mo11  1  -0.09671050  5.48841000  1.83203000  1
  Mo  Mo12  1  3.58755000  3.61783000  3.61431000  1
  Mo  Mo13  1  5.48307000  5.37233000  3.72710000  1
  Mo  Mo14  1  5.40184000  3.62624000  1.74977000  1
  Mo  Mo15  1  3.81476000  5.44570000  1.74957000  1
