# generated using pymatgen
data_Mo
_symmetry_space_group_name_H-M   'P 1'
_cell_length_a   7.28810946
_cell_length_b   7.28810946
_cell_length_c   3.64405465
_cell_angle_alpha   90.00000000
_cell_angle_beta   90.00000000
_cell_angle_gamma   90.00000000
_symmetry_Int_Tables_number   1
_chemical_formula_structural   Mo
_chemical_formula_sum   Mo16
_cell_volume   193.55957265
_cell_formula_units_Z   16
loop_
 _symmetry_equiv_pos_site_id
 _symmetry_equiv_pos_as_xyz
  1  'x, y, z'
loop_
 _atom_site_type_symbol
 _atom_site_label
 _atom_site_symmetry_multiplicity
 _atom_site_fract_x
 _atom_site_fract_y
 _atom_site_fract_z
 _atom_site_occupancy
  Mo  Mo0  1  7.20152000  7.32530000  -0.02514620  1
  Mo  Mo1  1  1.91653000  1.75729000  -0.01324930  1
  Mo  Mo2  1  1.78674000  0.05163640  1.86947000  1
  Mo  Mo3  1  -0.01486360  1.83233000  1.73911000  1
  Mo  Mo4  1  3.78221000  7.35179000  -0.05940190  1
  Mo  Mo5  1  5.57370000  1.75975000  3.60772000  1
  Mo  Mo6  1  5.33626000  7.38638000  1.75333000  1
  Mo  Mo7  1  3.65152000  1.80770000  1.81446000  1
  Mo  Mo8  1  7.23274000  3.58234000  3.57979000  1
  Mo  Mo9  1  1.72617000  5.41979000  3.65273000  1
  Mo  Mo10  1  1.70540000  3.50346000  1.89823000  1
  Mo  Mo11  1  0.00283859  5.45111000  1.87311000  1
  Mo  Mo12  1  3.71996000  3.72753000  3.65509000  1
  Mo  Mo13  1  5.50171000  5.45809000  3.81901000  1
  Mo  Mo14  1  5.49248000  3.57709000  1.76019000  1
  Mo  Mo15  1  3.60907000  5.52054000  1.83160000  1
