# generated using pymatgen
data_Mo
_symmetry_space_group_name_H-M   'P 1'
_cell_length_a   7.27806742
_cell_length_b   7.27806742
_cell_length_c   3.63903379
_cell_angle_alpha   90.00000000
_cell_angle_beta   90.00000000
_cell_angle_gamma   90.00000000
_symmetry_Int_Tables_number   1
_chemical_formula_structural   Mo
_chemical_formula_sum   Mo16
_cell_volume   192.76058556
_cell_formula_units_Z   16
loop_
 _symmetry_equiv_pos_site_id
 _symmetry_equiv_pos_as_xyz
  1  'x, y, z'
loop_
 _atom_site_type_symbol
 _atom_site_label
 _atom_site_symmetry_multiplicity
 _atom_site_fract_x
 _atom_site_fract_y
 _atom_site_fract_z
 _atom_site_occupancy
  Mo  Mo0  1  0.00702198  7.26542000  3.66419000  1
  Mo  Mo1  1  1.79689000  1.80759000  0.00053094  1
  Mo  Mo2  1  1.83041000  7.29263000  1.82786000  1
  Mo  Mo3  1  7.28574000  1.81681000  1.81103000  1
  Mo  Mo4  1  3.63165000  7.28709000  0.01724670  1
  Mo  Mo5  1  5.45861000  1.82100000  -0.00389284  1
  Mo  Mo6  1  5.46551000  0.00031380  1.81123000  1
  Mo  Mo7  1  3.64758000  1.82413000  1.84396000  1
  Mo  Mo8  1  7.29824000  3.63362000  3.64233000  1
  Mo  Mo9  1  1.79292000  5.46046000  3.60459000  1
  Mo  Mo10  1  1.83608000  3.64275000  1.82663000  1
  Mo  Mo11  1  -0.02550480  5.45402000  1.78928000  1
  Mo  Mo12  1  3.62089000  3.62814000  3.61981000  1
  Mo  Mo13  1  5.47167000  5.46273000  3.64845000  1
  Mo  Mo14  1  5.45901000  3.63931000  1.81862000  1
  Mo  Mo15  1  3.64729000  5.46606000  1.82918000  1
