# generated using pymatgen
data_Mo
_symmetry_space_group_name_H-M   'P 1'
_cell_length_a   7.28810946
_cell_length_b   7.28810946
_cell_length_c   3.64405465
_cell_angle_alpha   90.00000000
_cell_angle_beta   90.00000000
_cell_angle_gamma   90.00000000
_symmetry_Int_Tables_number   1
_chemical_formula_structural   Mo
_chemical_formula_sum   Mo16
_cell_volume   193.55957265
_cell_formula_units_Z   16
loop_
 _symmetry_equiv_pos_site_id
 _symmetry_equiv_pos_as_xyz
  1  'x, y, z'
loop_
 _atom_site_type_symbol
 _atom_site_label
 _atom_site_symmetry_multiplicity
 _atom_site_fract_x
 _atom_site_fract_y
 _atom_site_fract_z
 _atom_site_occupancy
  Mo  Mo0  1  7.32823000  7.27195000  -0.00562509  1
  Mo  Mo1  1  1.96974000  1.81683000  -0.00934598  1
  Mo  Mo2  1  1.78334000  -0.00519397  1.83919000  1
  Mo  Mo3  1  0.04361970  1.74270000  1.89192000  1
  Mo  Mo4  1  3.57264000  7.32172000  0.05913990  1
  Mo  Mo5  1  5.48815000  1.92450000  3.68143000  1
  Mo  Mo6  1  5.33220000  7.10326000  1.69801000  1
  Mo  Mo7  1  3.60923000  1.76133000  1.87819000  1
  Mo  Mo8  1  7.30649000  3.63301000  3.68578000  1
  Mo  Mo9  1  1.83426000  5.45638000  3.56770000  1
  Mo  Mo10  1  1.84077000  3.63883000  1.79247000  1
  Mo  Mo11  1  -0.10362200  5.50248000  1.81194000  1
  Mo  Mo12  1  3.68790000  3.62037000  3.65963000  1
  Mo  Mo13  1  5.41246000  5.58004000  3.61133000  1
  Mo  Mo14  1  5.45248000  3.71552000  1.80012000  1
  Mo  Mo15  1  3.66612000  5.42838000  1.79418000  1
