# generated using pymatgen
data_Mo
_symmetry_space_group_name_H-M   'P 1'
_cell_length_a   7.28810946
_cell_length_b   7.28810946
_cell_length_c   3.64405465
_cell_angle_alpha   90.00000000
_cell_angle_beta   90.00000000
_cell_angle_gamma   90.00000000
_symmetry_Int_Tables_number   1
_chemical_formula_structural   Mo
_chemical_formula_sum   Mo16
_cell_volume   193.55957265
_cell_formula_units_Z   16
loop_
 _symmetry_equiv_pos_site_id
 _symmetry_equiv_pos_as_xyz
  1  'x, y, z'
loop_
 _atom_site_type_symbol
 _atom_site_label
 _atom_site_symmetry_multiplicity
 _atom_site_fract_x
 _atom_site_fract_y
 _atom_site_fract_z
 _atom_site_occupancy
  Mo  Mo0  1  7.28018000  7.20050000  -0.05038740  1
  Mo  Mo1  1  1.85018000  1.73231000  0.10450200  1
  Mo  Mo2  1  1.85778000  0.01576300  1.76945000  1
  Mo  Mo3  1  -0.11635500  1.80143000  1.87478000  1
  Mo  Mo4  1  3.60007000  7.36538000  -0.00616359  1
  Mo  Mo5  1  5.48630000  1.91210000  3.64314000  1
  Mo  Mo6  1  5.34011000  7.17597000  1.86752000  1
  Mo  Mo7  1  3.60144000  1.83477000  1.91851000  1
  Mo  Mo8  1  7.31563000  3.59602000  3.71418000  1
  Mo  Mo9  1  1.87795000  5.51407000  3.60281000  1
  Mo  Mo10  1  1.89454000  3.66619000  1.82059000  1
  Mo  Mo11  1  -0.03098060  5.42804000  1.78738000  1
  Mo  Mo12  1  3.69182000  3.60372000  3.61835000  1
  Mo  Mo13  1  5.46824000  5.48034000  3.55397000  1
  Mo  Mo14  1  5.42414000  3.74299000  1.71741000  1
  Mo  Mo15  1  3.68295000  5.44252000  1.82002000  1
