# generated using pymatgen
data_Mo
_symmetry_space_group_name_H-M   'P 1'
_cell_length_a   7.28810946
_cell_length_b   7.28810946
_cell_length_c   3.64405465
_cell_angle_alpha   90.00000000
_cell_angle_beta   90.00000000
_cell_angle_gamma   90.00000000
_symmetry_Int_Tables_number   1
_chemical_formula_structural   Mo
_chemical_formula_sum   Mo16
_cell_volume   193.55957265
_cell_formula_units_Z   16
loop_
 _symmetry_equiv_pos_site_id
 _symmetry_equiv_pos_as_xyz
  1  'x, y, z'
loop_
 _atom_site_type_symbol
 _atom_site_label
 _atom_site_symmetry_multiplicity
 _atom_site_fract_x
 _atom_site_fract_y
 _atom_site_fract_z
 _atom_site_occupancy
  Mo  Mo0  1  7.19331000  7.24838000  0.04233360  1
  Mo  Mo1  1  1.71042000  1.81721000  -0.09173720  1
  Mo  Mo2  1  1.96551000  0.06835940  1.82099000  1
  Mo  Mo3  1  0.03546830  1.76068000  1.78462000  1
  Mo  Mo4  1  3.75981000  7.17925000  0.04646050  1
  Mo  Mo5  1  5.55782000  1.73288000  3.64425000  1
  Mo  Mo6  1  5.42136000  7.23728000  1.79924000  1
  Mo  Mo7  1  3.76615000  1.83586000  1.68534000  1
  Mo  Mo8  1  7.23648000  3.75702000  3.56440000  1
  Mo  Mo9  1  1.80311000  5.52786000  3.62001000  1
  Mo  Mo10  1  1.74423000  3.58171000  1.88562000  1
  Mo  Mo11  1  -0.02505940  5.57017000  1.86382000  1
  Mo  Mo12  1  3.56202000  3.66342000  3.65528000  1
  Mo  Mo13  1  5.43287000  5.42611000  3.77823000  1
  Mo  Mo14  1  5.50823000  3.63506000  1.86588000  1
  Mo  Mo15  1  3.55227000  5.47086000  1.79132000  1
