# generated using pymatgen
data_Mo
_symmetry_space_group_name_H-M   'P 1'
_cell_length_a   7.28810946
_cell_length_b   7.28810946
_cell_length_c   3.64405465
_cell_angle_alpha   90.00000000
_cell_angle_beta   90.00000000
_cell_angle_gamma   90.00000000
_symmetry_Int_Tables_number   1
_chemical_formula_structural   Mo
_chemical_formula_sum   Mo16
_cell_volume   193.55957265
_cell_formula_units_Z   16
loop_
 _symmetry_equiv_pos_site_id
 _symmetry_equiv_pos_as_xyz
  1  'x, y, z'
loop_
 _atom_site_type_symbol
 _atom_site_label
 _atom_site_symmetry_multiplicity
 _atom_site_fract_x
 _atom_site_fract_y
 _atom_site_fract_z
 _atom_site_occupancy
  Mo  Mo0  1  7.22650000  7.31826000  -0.04582840  1
  Mo  Mo1  1  1.80401000  1.87811000  0.02374860  1
  Mo  Mo2  1  1.87013000  0.00336275  1.85133000  1
  Mo  Mo3  1  -0.10512700  1.84286000  1.75440000  1
  Mo  Mo4  1  3.66834000  7.18795000  -0.00132351  1
  Mo  Mo5  1  5.35431000  1.67159000  3.61337000  1
  Mo  Mo6  1  5.57704000  7.39370000  1.85253000  1
  Mo  Mo7  1  3.67061000  1.82694000  1.80083000  1
  Mo  Mo8  1  7.18552000  3.69031000  3.66104000  1
  Mo  Mo9  1  1.79279000  5.44574000  3.73762000  1
  Mo  Mo10  1  1.84714000  3.60724000  1.75507000  1
  Mo  Mo11  1  0.10408300  5.46862000  1.80766000  1
  Mo  Mo12  1  3.70490000  3.72890000  3.53687000  1
  Mo  Mo13  1  5.45677000  5.39113000  3.68404000  1
  Mo  Mo14  1  5.41785000  3.60356000  1.90060000  1
  Mo  Mo15  1  3.64913000  5.45383000  1.82410000  1
