# generated using pymatgen
data_Mo
_symmetry_space_group_name_H-M   'P 1'
_cell_length_a   7.28810946
_cell_length_b   7.28810946
_cell_length_c   3.64405465
_cell_angle_alpha   90.00000000
_cell_angle_beta   90.00000000
_cell_angle_gamma   90.00000000
_symmetry_Int_Tables_number   1
_chemical_formula_structural   Mo
_chemical_formula_sum   Mo16
_cell_volume   193.55957265
_cell_formula_units_Z   16
loop_
 _symmetry_equiv_pos_site_id
 _symmetry_equiv_pos_as_xyz
  1  'x, y, z'
loop_
 _atom_site_type_symbol
 _atom_site_label
 _atom_site_symmetry_multiplicity
 _atom_site_fract_x
 _atom_site_fract_y
 _atom_site_fract_z
 _atom_site_occupancy
  Mo  Mo0  1  7.30677000  7.22104000  0.00024429  1
  Mo  Mo1  1  1.95380000  1.75916000  -0.07667770  1
  Mo  Mo2  1  1.85100000  0.07001220  1.76248000  1
  Mo  Mo3  1  -0.02648270  1.83715000  1.83088000  1
  Mo  Mo4  1  3.66170000  7.12441000  0.01727830  1
  Mo  Mo5  1  5.36599000  1.84067000  3.56098000  1
  Mo  Mo6  1  5.47653000  7.26187000  1.84267000  1
  Mo  Mo7  1  3.60090000  1.75447000  1.72882000  1
  Mo  Mo8  1  7.18535000  3.67371000  3.62499000  1
  Mo  Mo9  1  1.81872000  5.51020000  3.67490000  1
  Mo  Mo10  1  1.83400000  3.71484000  1.79290000  1
  Mo  Mo11  1  -0.02764150  5.46408000  1.93250000  1
  Mo  Mo12  1  3.59451000  3.62952000  3.75052000  1
  Mo  Mo13  1  5.35989000  5.44316000  3.64768000  1
  Mo  Mo14  1  5.43344000  3.67568000  1.81922000  1
  Mo  Mo15  1  3.83552000  5.53214000  1.84667000  1
