# generated using pymatgen
data_Mo
_symmetry_space_group_name_H-M   'P 1'
_cell_length_a   7.28810946
_cell_length_b   7.28810946
_cell_length_c   3.64405465
_cell_angle_alpha   90.00000000
_cell_angle_beta   90.00000000
_cell_angle_gamma   90.00000000
_symmetry_Int_Tables_number   1
_chemical_formula_structural   Mo
_chemical_formula_sum   Mo16
_cell_volume   193.55957265
_cell_formula_units_Z   16
loop_
 _symmetry_equiv_pos_site_id
 _symmetry_equiv_pos_as_xyz
  1  'x, y, z'
loop_
 _atom_site_type_symbol
 _atom_site_label
 _atom_site_symmetry_multiplicity
 _atom_site_fract_x
 _atom_site_fract_y
 _atom_site_fract_z
 _atom_site_occupancy
  Mo  Mo0  1  7.23570000  7.14071000  -0.09294950  1
  Mo  Mo1  1  1.80644000  1.67426000  0.02342640  1
  Mo  Mo2  1  1.75768000  -0.04412440  1.78907000  1
  Mo  Mo3  1  0.07630910  1.74825000  1.80135000  1
  Mo  Mo4  1  3.65387000  7.32983000  -0.02189130  1
  Mo  Mo5  1  5.48093000  1.96301000  3.70853000  1
  Mo  Mo6  1  5.58862000  7.20894000  1.81509000  1
  Mo  Mo7  1  3.46382000  1.79784000  1.88767000  1
  Mo  Mo8  1  7.33265000  3.71618000  3.56517000  1
  Mo  Mo9  1  1.84203000  5.50596000  3.67942000  1
  Mo  Mo10  1  1.85980000  3.68241000  1.87904000  1
  Mo  Mo11  1  0.04849980  5.46719000  1.73447000  1
  Mo  Mo12  1  3.54620000  3.71001000  3.68835000  1
  Mo  Mo13  1  5.35018000  5.50447000  3.60153000  1
  Mo  Mo14  1  5.44213000  3.63561000  1.89207000  1
  Mo  Mo15  1  3.73915000  5.47156000  1.80570000  1
