# generated using pymatgen
data_Mo
_symmetry_space_group_name_H-M   'P 1'
_cell_length_a   7.28810946
_cell_length_b   7.28810946
_cell_length_c   3.64405465
_cell_angle_alpha   90.00000000
_cell_angle_beta   90.00000000
_cell_angle_gamma   90.00000000
_symmetry_Int_Tables_number   1
_chemical_formula_structural   Mo
_chemical_formula_sum   Mo16
_cell_volume   193.55957265
_cell_formula_units_Z   16
loop_
 _symmetry_equiv_pos_site_id
 _symmetry_equiv_pos_as_xyz
  1  'x, y, z'
loop_
 _atom_site_type_symbol
 _atom_site_label
 _atom_site_symmetry_multiplicity
 _atom_site_fract_x
 _atom_site_fract_y
 _atom_site_fract_z
 _atom_site_occupancy
  Mo  Mo0  1  7.26805000  7.25497000  0.01229280  1
  Mo  Mo1  1  1.74092000  1.70391000  -0.01571620  1
  Mo  Mo2  1  1.75262000  -0.11595200  1.82208000  1
  Mo  Mo3  1  0.17615700  1.74299000  1.76357000  1
  Mo  Mo4  1  3.70087000  7.27250000  0.00452420  1
  Mo  Mo5  1  5.51942000  1.86979000  3.58343000  1
  Mo  Mo6  1  5.45343000  7.35324000  1.78097000  1
  Mo  Mo7  1  3.54038000  1.81768000  1.78837000  1
  Mo  Mo8  1  7.40894000  3.71569000  3.66742000  1
  Mo  Mo9  1  1.84216000  5.51178000  3.61640000  1
  Mo  Mo10  1  1.84841000  3.60612000  1.78286000  1
  Mo  Mo11  1  -0.06053700  5.47573000  1.80384000  1
  Mo  Mo12  1  3.56391000  3.61747000  3.71826000  1
  Mo  Mo13  1  5.51590000  5.43075000  3.63210000  1
  Mo  Mo14  1  5.40460000  3.73758000  1.85241000  1
  Mo  Mo15  1  3.54876000  5.51786000  1.94324000  1
