# generated using pymatgen
data_Mo
_symmetry_space_group_name_H-M   'P 1'
_cell_length_a   7.28810946
_cell_length_b   7.28810946
_cell_length_c   3.64405465
_cell_angle_alpha   90.00000000
_cell_angle_beta   90.00000000
_cell_angle_gamma   90.00000000
_symmetry_Int_Tables_number   1
_chemical_formula_structural   Mo
_chemical_formula_sum   Mo16
_cell_volume   193.55957265
_cell_formula_units_Z   16
loop_
 _symmetry_equiv_pos_site_id
 _symmetry_equiv_pos_as_xyz
  1  'x, y, z'
loop_
 _atom_site_type_symbol
 _atom_site_label
 _atom_site_symmetry_multiplicity
 _atom_site_fract_x
 _atom_site_fract_y
 _atom_site_fract_z
 _atom_site_occupancy
  Mo  Mo0  1  7.28459000  7.21025000  0.06074710  1
  Mo  Mo1  1  1.73960000  1.86286000  -0.07085180  1
  Mo  Mo2  1  1.83465000  -0.07926980  1.86121000  1
  Mo  Mo3  1  -0.04084340  1.92688000  1.80701000  1
  Mo  Mo4  1  3.67888000  7.29040000  -0.03032980  1
  Mo  Mo5  1  5.53768000  1.71788000  3.60859000  1
  Mo  Mo6  1  5.38987000  7.31763000  1.73911000  1
  Mo  Mo7  1  3.74583000  1.79903000  1.79234000  1
  Mo  Mo8  1  7.40285000  3.74710000  3.70385000  1
  Mo  Mo9  1  1.93936000  5.55546000  3.62826000  1
  Mo  Mo10  1  1.86517000  3.75085000  1.77324000  1
  Mo  Mo11  1  -0.21795200  5.37679000  1.85668000  1
  Mo  Mo12  1  3.57726000  3.55195000  3.67586000  1
  Mo  Mo13  1  5.40057000  5.27687000  3.64719000  1
  Mo  Mo14  1  5.38087000  3.66925000  1.80461000  1
  Mo  Mo15  1  3.70563000  5.53816000  1.89852000  1
