# generated using pymatgen
data_Mo
_symmetry_space_group_name_H-M   'P 1'
_cell_length_a   7.28810946
_cell_length_b   7.28810946
_cell_length_c   3.64405465
_cell_angle_alpha   90.00000000
_cell_angle_beta   90.00000000
_cell_angle_gamma   90.00000000
_symmetry_Int_Tables_number   1
_chemical_formula_structural   Mo
_chemical_formula_sum   Mo16
_cell_volume   193.55957265
_cell_formula_units_Z   16
loop_
 _symmetry_equiv_pos_site_id
 _symmetry_equiv_pos_as_xyz
  1  'x, y, z'
loop_
 _atom_site_type_symbol
 _atom_site_label
 _atom_site_symmetry_multiplicity
 _atom_site_fract_x
 _atom_site_fract_y
 _atom_site_fract_z
 _atom_site_occupancy
  Mo  Mo0  1  7.24551000  7.33880000  0.01828500  1
  Mo  Mo1  1  1.86346000  1.91710000  0.03724490  1
  Mo  Mo2  1  1.80823000  0.05996270  1.77608000  1
  Mo  Mo3  1  -0.03016060  1.84160000  1.82205000  1
  Mo  Mo4  1  3.65419000  7.23904000  -0.10641900  1
  Mo  Mo5  1  5.37458000  1.76631000  3.62907000  1
  Mo  Mo6  1  5.66208000  7.32222000  1.88400000  1
  Mo  Mo7  1  3.59754000  1.80668000  1.76814000  1
  Mo  Mo8  1  7.14396000  3.58550000  3.63353000  1
  Mo  Mo9  1  1.71544000  5.44414000  3.74053000  1
  Mo  Mo10  1  1.77040000  3.46281000  1.85798000  1
  Mo  Mo11  1  0.00315470  5.38601000  1.81117000  1
  Mo  Mo12  1  3.74013000  3.71572000  3.59456000  1
  Mo  Mo13  1  5.55427000  5.40323000  3.68132000  1
  Mo  Mo14  1  5.42346000  3.64937000  1.82740000  1
  Mo  Mo15  1  3.69775000  5.57360000  1.78112000  1
