# generated using pymatgen
data_Mo
_symmetry_space_group_name_H-M   'P 1'
_cell_length_a   7.28810946
_cell_length_b   7.28810946
_cell_length_c   3.64405465
_cell_angle_alpha   90.00000000
_cell_angle_beta   90.00000000
_cell_angle_gamma   90.00000000
_symmetry_Int_Tables_number   1
_chemical_formula_structural   Mo
_chemical_formula_sum   Mo16
_cell_volume   193.55957265
_cell_formula_units_Z   16
loop_
 _symmetry_equiv_pos_site_id
 _symmetry_equiv_pos_as_xyz
  1  'x, y, z'
loop_
 _atom_site_type_symbol
 _atom_site_label
 _atom_site_symmetry_multiplicity
 _atom_site_fract_x
 _atom_site_fract_y
 _atom_site_fract_z
 _atom_site_occupancy
  Mo  Mo0  1  7.26228000  7.37126000  -0.00253432  1
  Mo  Mo1  1  1.74575000  1.87533000  -0.13111700  1
  Mo  Mo2  1  1.75867000  0.00071847  1.82404000  1
  Mo  Mo3  1  0.04068080  1.83724000  1.75086000  1
  Mo  Mo4  1  3.66984000  7.33182000  0.00866373  1
  Mo  Mo5  1  5.39412000  1.82909000  3.62055000  1
  Mo  Mo6  1  5.60160000  7.32158000  1.85824000  1
  Mo  Mo7  1  3.68975000  1.80019000  1.74979000  1
  Mo  Mo8  1  7.34173000  3.69442000  3.61041000  1
  Mo  Mo9  1  1.89256000  5.44958000  3.68788000  1
  Mo  Mo10  1  1.77514000  3.58815000  1.87502000  1
  Mo  Mo11  1  0.08218520  5.47306000  1.85210000  1
  Mo  Mo12  1  3.54958000  3.61065000  3.57566000  1
  Mo  Mo13  1  5.38289000  5.36077000  3.71947000  1
  Mo  Mo14  1  5.51438000  3.56966000  1.85452000  1
  Mo  Mo15  1  3.52284000  5.39857000  1.90249000  1
