# generated using pymatgen
data_Mo
_symmetry_space_group_name_H-M   'P 1'
_cell_length_a   7.27806742
_cell_length_b   7.27806742
_cell_length_c   3.63903379
_cell_angle_alpha   90.00000000
_cell_angle_beta   90.00000000
_cell_angle_gamma   90.00000000
_symmetry_Int_Tables_number   1
_chemical_formula_structural   Mo
_chemical_formula_sum   Mo16
_cell_volume   192.76058556
_cell_formula_units_Z   16
loop_
 _symmetry_equiv_pos_site_id
 _symmetry_equiv_pos_as_xyz
  1  'x, y, z'
loop_
 _atom_site_type_symbol
 _atom_site_label
 _atom_site_symmetry_multiplicity
 _atom_site_fract_x
 _atom_site_fract_y
 _atom_site_fract_z
 _atom_site_occupancy
  Mo  Mo0  1  0.00461519  7.27567000  3.64664000  1
  Mo  Mo1  1  1.86451000  1.82939000  0.00385028  1
  Mo  Mo2  1  1.80000000  7.27598000  1.80569000  1
  Mo  Mo3  1  7.29999000  1.81279000  1.78464000  1
  Mo  Mo4  1  3.65142000  7.28558000  0.02141650  1
  Mo  Mo5  1  5.44836000  1.81157000  0.01681810  1
  Mo  Mo6  1  5.46978000  -0.02250680  1.85811000  1
  Mo  Mo7  1  3.62949000  1.83160000  1.83025000  1
  Mo  Mo8  1  7.24419000  3.62928000  3.63549000  1
  Mo  Mo9  1  1.82654000  5.45634000  3.64422000  1
  Mo  Mo10  1  1.80102000  3.64935000  1.80234000  1
  Mo  Mo11  1  -0.00312118  5.47208000  1.81840000  1
  Mo  Mo12  1  3.63106000  3.62655000  3.63488000  1
  Mo  Mo13  1  5.45327000  5.45609000  3.60580000  1
  Mo  Mo14  1  5.45355000  3.65356000  1.83435000  1
  Mo  Mo15  1  3.64932000  5.45874000  1.80814000  1
