# generated using pymatgen
data_Mo
_symmetry_space_group_name_H-M   'P 1'
_cell_length_a   7.28810946
_cell_length_b   7.28810946
_cell_length_c   3.64405465
_cell_angle_alpha   90.00000000
_cell_angle_beta   90.00000000
_cell_angle_gamma   90.00000000
_symmetry_Int_Tables_number   1
_chemical_formula_structural   Mo
_chemical_formula_sum   Mo16
_cell_volume   193.55957265
_cell_formula_units_Z   16
loop_
 _symmetry_equiv_pos_site_id
 _symmetry_equiv_pos_as_xyz
  1  'x, y, z'
loop_
 _atom_site_type_symbol
 _atom_site_label
 _atom_site_symmetry_multiplicity
 _atom_site_fract_x
 _atom_site_fract_y
 _atom_site_fract_z
 _atom_site_occupancy
  Mo  Mo0  1  7.35895000  7.36828000  0.06535570  1
  Mo  Mo1  1  1.83395000  1.81467000  -0.10389000  1
  Mo  Mo2  1  1.70846000  0.04973360  1.86448000  1
  Mo  Mo3  1  -0.13743600  1.83621000  1.82131000  1
  Mo  Mo4  1  3.68820000  7.29613000  0.02444060  1
  Mo  Mo5  1  5.38269000  1.85587000  3.62417000  1
  Mo  Mo6  1  5.50918000  7.17752000  1.75805000  1
  Mo  Mo7  1  3.71368000  1.80103000  1.77108000  1
  Mo  Mo8  1  7.19789000  3.51284000  3.66803000  1
  Mo  Mo9  1  1.80489000  5.47159000  3.58247000  1
  Mo  Mo10  1  1.83245000  3.74822000  1.80797000  1
  Mo  Mo11  1  -0.02964010  5.44088000  1.90872000  1
  Mo  Mo12  1  3.60525000  3.61152000  3.65935000  1
  Mo  Mo13  1  5.64303000  5.50507000  3.64584000  1
  Mo  Mo14  1  5.35817000  3.61843000  1.79104000  1
  Mo  Mo15  1  3.75428000  5.40410000  1.86765000  1
