# generated using pymatgen
data_Mo
_symmetry_space_group_name_H-M   'P 1'
_cell_length_a   7.28810946
_cell_length_b   7.28810946
_cell_length_c   3.64405465
_cell_angle_alpha   90.00000000
_cell_angle_beta   90.00000000
_cell_angle_gamma   90.00000000
_symmetry_Int_Tables_number   1
_chemical_formula_structural   Mo
_chemical_formula_sum   Mo16
_cell_volume   193.55957265
_cell_formula_units_Z   16
loop_
 _symmetry_equiv_pos_site_id
 _symmetry_equiv_pos_as_xyz
  1  'x, y, z'
loop_
 _atom_site_type_symbol
 _atom_site_label
 _atom_site_symmetry_multiplicity
 _atom_site_fract_x
 _atom_site_fract_y
 _atom_site_fract_z
 _atom_site_occupancy
  Mo  Mo0  1  7.28888000  7.36221000  0.03582220  1
  Mo  Mo1  1  1.76165000  1.81509000  -0.01140920  1
  Mo  Mo2  1  1.84637000  0.05135120  1.74735000  1
  Mo  Mo3  1  -0.03044270  1.73093000  1.71951000  1
  Mo  Mo4  1  3.57792000  7.34155000  0.05916630  1
  Mo  Mo5  1  5.37584000  1.87600000  3.53379000  1
  Mo  Mo6  1  5.54268000  7.24767000  1.88381000  1
  Mo  Mo7  1  3.74986000  1.80032000  1.82342000  1
  Mo  Mo8  1  7.29111000  3.48976000  3.60644000  1
  Mo  Mo9  1  1.72192000  5.53848000  3.68578000  1
  Mo  Mo10  1  1.79978000  3.65731000  1.77412000  1
  Mo  Mo11  1  -0.04230570  5.44833000  1.81830000  1
  Mo  Mo12  1  3.65008000  3.49811000  3.68900000  1
  Mo  Mo13  1  5.50026000  5.48900000  3.61877000  1
  Mo  Mo14  1  5.55961000  3.65932000  1.85568000  1
  Mo  Mo15  1  3.63080000  5.50667000  1.91650000  1
