# generated using pymatgen
data_Mo
_symmetry_space_group_name_H-M   'P 1'
_cell_length_a   7.28810946
_cell_length_b   7.28810946
_cell_length_c   3.64405465
_cell_angle_alpha   90.00000000
_cell_angle_beta   90.00000000
_cell_angle_gamma   90.00000000
_symmetry_Int_Tables_number   1
_chemical_formula_structural   Mo
_chemical_formula_sum   Mo16
_cell_volume   193.55957265
_cell_formula_units_Z   16
loop_
 _symmetry_equiv_pos_site_id
 _symmetry_equiv_pos_as_xyz
  1  'x, y, z'
loop_
 _atom_site_type_symbol
 _atom_site_label
 _atom_site_symmetry_multiplicity
 _atom_site_fract_x
 _atom_site_fract_y
 _atom_site_fract_z
 _atom_site_occupancy
  Mo  Mo0  1  7.33678000  7.25410000  0.09513640  1
  Mo  Mo1  1  1.77654000  1.82086000  0.04474990  1
  Mo  Mo2  1  1.84565000  0.01061010  1.75333000  1
  Mo  Mo3  1  -0.05987190  1.75073000  1.90904000  1
  Mo  Mo4  1  3.58844000  7.19520000  -0.00330349  1
  Mo  Mo5  1  5.24951000  1.90653000  3.59777000  1
  Mo  Mo6  1  5.56544000  7.25512000  1.90603000  1
  Mo  Mo7  1  3.67281000  1.81392000  1.81561000  1
  Mo  Mo8  1  7.30727000  3.69629000  3.66703000  1
  Mo  Mo9  1  1.87169000  5.50432000  3.58430000  1
  Mo  Mo10  1  1.85755000  3.69119000  1.77533000  1
  Mo  Mo11  1  -0.04924600  5.49433000  1.85935000  1
  Mo  Mo12  1  3.59847000  3.66385000  3.64059000  1
  Mo  Mo13  1  5.48461000  5.44827000  3.50549000  1
  Mo  Mo14  1  5.45103000  3.63002000  1.87029000  1
  Mo  Mo15  1  3.72734000  5.37676000  1.73531000  1
