# generated using pymatgen
data_Mo
_symmetry_space_group_name_H-M   'P 1'
_cell_length_a   7.28810946
_cell_length_b   7.28810946
_cell_length_c   3.64405465
_cell_angle_alpha   90.00000000
_cell_angle_beta   90.00000000
_cell_angle_gamma   90.00000000
_symmetry_Int_Tables_number   1
_chemical_formula_structural   Mo
_chemical_formula_sum   Mo16
_cell_volume   193.55957265
_cell_formula_units_Z   16
loop_
 _symmetry_equiv_pos_site_id
 _symmetry_equiv_pos_as_xyz
  1  'x, y, z'
loop_
 _atom_site_type_symbol
 _atom_site_label
 _atom_site_symmetry_multiplicity
 _atom_site_fract_x
 _atom_site_fract_y
 _atom_site_fract_z
 _atom_site_occupancy
  Mo  Mo0  1  7.37209000  7.26388000  -0.10079900  1
  Mo  Mo1  1  1.81491000  1.92456000  -0.00774759  1
  Mo  Mo2  1  1.66694000  0.09749280  1.79729000  1
  Mo  Mo3  1  -0.06630510  1.80376000  1.80751000  1
  Mo  Mo4  1  3.52280000  7.29492000  -0.02929200  1
  Mo  Mo5  1  5.56658000  1.79097000  3.65550000  1
  Mo  Mo6  1  5.48999000  7.23408000  1.81595000  1
  Mo  Mo7  1  3.69688000  1.73482000  1.77211000  1
  Mo  Mo8  1  7.23320000  3.58589000  3.55856000  1
  Mo  Mo9  1  1.77404000  5.39047000  3.71873000  1
  Mo  Mo10  1  1.90929000  3.72128000  1.80798000  1
  Mo  Mo11  1  -0.12422600  5.49396000  1.80331000  1
  Mo  Mo12  1  3.74419000  3.53597000  3.68043000  1
  Mo  Mo13  1  5.44481000  5.52997000  3.70997000  1
  Mo  Mo14  1  5.38355000  3.66010000  1.91720000  1
  Mo  Mo15  1  3.79524000  5.44998000  1.84936000  1
