# generated using pymatgen
data_Mo
_symmetry_space_group_name_H-M   'P 1'
_cell_length_a   7.28810946
_cell_length_b   7.28810946
_cell_length_c   3.64405465
_cell_angle_alpha   90.00000000
_cell_angle_beta   90.00000000
_cell_angle_gamma   90.00000000
_symmetry_Int_Tables_number   1
_chemical_formula_structural   Mo
_chemical_formula_sum   Mo16
_cell_volume   193.55957265
_cell_formula_units_Z   16
loop_
 _symmetry_equiv_pos_site_id
 _symmetry_equiv_pos_as_xyz
  1  'x, y, z'
loop_
 _atom_site_type_symbol
 _atom_site_label
 _atom_site_symmetry_multiplicity
 _atom_site_fract_x
 _atom_site_fract_y
 _atom_site_fract_z
 _atom_site_occupancy
  Mo  Mo0  1  7.22452000  7.24129000  -0.02568250  1
  Mo  Mo1  1  1.73436000  2.00961000  -0.01168100  1
  Mo  Mo2  1  1.89085000  0.13907100  1.82314000  1
  Mo  Mo3  1  -0.10314600  1.76409000  1.87361000  1
  Mo  Mo4  1  3.70695000  7.20464000  0.08354720  1
  Mo  Mo5  1  5.39860000  1.69295000  3.75208000  1
  Mo  Mo6  1  5.41075000  7.40410000  1.83215000  1
  Mo  Mo7  1  3.64041000  1.90628000  1.90592000  1
  Mo  Mo8  1  7.22130000  3.64790000  3.62809000  1
  Mo  Mo9  1  1.91368000  5.42718000  3.52071000  1
  Mo  Mo10  1  1.84505000  3.59415000  1.86037000  1
  Mo  Mo11  1  -0.00031689  5.49292000  1.72604000  1
  Mo  Mo12  1  3.81281000  3.59039000  3.60226000  1
  Mo  Mo13  1  5.46996000  5.40102000  3.62452000  1
  Mo  Mo14  1  5.42568000  3.57976000  1.78427000  1
  Mo  Mo15  1  3.63252000  5.41675000  1.77672000  1
