# generated using pymatgen
data_Mo
_symmetry_space_group_name_H-M   'P 1'
_cell_length_a   7.28810946
_cell_length_b   7.28810946
_cell_length_c   3.64405465
_cell_angle_alpha   90.00000000
_cell_angle_beta   90.00000000
_cell_angle_gamma   90.00000000
_symmetry_Int_Tables_number   1
_chemical_formula_structural   Mo
_chemical_formula_sum   Mo16
_cell_volume   193.55957265
_cell_formula_units_Z   16
loop_
 _symmetry_equiv_pos_site_id
 _symmetry_equiv_pos_as_xyz
  1  'x, y, z'
loop_
 _atom_site_type_symbol
 _atom_site_label
 _atom_site_symmetry_multiplicity
 _atom_site_fract_x
 _atom_site_fract_y
 _atom_site_fract_z
 _atom_site_occupancy
  Mo  Mo0  1  7.35478000  7.30503000  -0.01133540  1
  Mo  Mo1  1  1.81874000  1.90208000  -0.04134920  1
  Mo  Mo2  1  1.84704000  0.03767020  1.79263000  1
  Mo  Mo3  1  0.04114040  1.74988000  1.80644000  1
  Mo  Mo4  1  3.60462000  7.27584000  0.10524000  1
  Mo  Mo5  1  5.46109000  1.90030000  3.58982000  1
  Mo  Mo6  1  5.47575000  7.27655000  1.74113000  1
  Mo  Mo7  1  3.48668000  1.80800000  1.79313000  1
  Mo  Mo8  1  7.26679000  3.64250000  3.65510000  1
  Mo  Mo9  1  1.80503000  5.41410000  3.65764000  1
  Mo  Mo10  1  1.68318000  3.68708000  1.75418000  1
  Mo  Mo11  1  0.04406740  5.55002000  1.90377000  1
  Mo  Mo12  1  3.54475000  3.52508000  3.68186000  1
  Mo  Mo13  1  5.43745000  5.49475000  3.68155000  1
  Mo  Mo14  1  5.58522000  3.56651000  1.81065000  1
  Mo  Mo15  1  3.76767000  5.37673000  1.83560000  1
