# generated using pymatgen
data_Mo
_symmetry_space_group_name_H-M   'P 1'
_cell_length_a   7.28810946
_cell_length_b   7.28810946
_cell_length_c   3.64405465
_cell_angle_alpha   90.00000000
_cell_angle_beta   90.00000000
_cell_angle_gamma   90.00000000
_symmetry_Int_Tables_number   1
_chemical_formula_structural   Mo
_chemical_formula_sum   Mo16
_cell_volume   193.55957265
_cell_formula_units_Z   16
loop_
 _symmetry_equiv_pos_site_id
 _symmetry_equiv_pos_as_xyz
  1  'x, y, z'
loop_
 _atom_site_type_symbol
 _atom_site_label
 _atom_site_symmetry_multiplicity
 _atom_site_fract_x
 _atom_site_fract_y
 _atom_site_fract_z
 _atom_site_occupancy
  Mo  Mo0  1  7.25850000  7.24042000  0.00837302  1
  Mo  Mo1  1  1.79239000  1.79387000  0.00279206  1
  Mo  Mo2  1  1.82737000  -0.01283990  1.95241000  1
  Mo  Mo3  1  -0.06541120  1.67937000  1.85982000  1
  Mo  Mo4  1  3.59589000  7.26049000  0.04129360  1
  Mo  Mo5  1  5.45364000  1.86622000  3.57088000  1
  Mo  Mo6  1  5.39638000  7.26906000  1.79086000  1
  Mo  Mo7  1  3.55766000  1.77750000  1.83912000  1
  Mo  Mo8  1  7.30724000  3.69026000  3.60078000  1
  Mo  Mo9  1  1.79689000  5.53821000  3.65468000  1
  Mo  Mo10  1  1.81078000  3.71502000  1.85231000  1
  Mo  Mo11  1  -0.08336840  5.61153000  1.79097000  1
  Mo  Mo12  1  3.76958000  3.51256000  3.63537000  1
  Mo  Mo13  1  5.51722000  5.46893000  3.62882000  1
  Mo  Mo14  1  5.57462000  3.67235000  1.67672000  1
  Mo  Mo15  1  3.71461000  5.42917000  1.85085000  1
