# generated using pymatgen
data_Mo
_symmetry_space_group_name_H-M   'P 1'
_cell_length_a   7.27806742
_cell_length_b   7.27806742
_cell_length_c   3.63903379
_cell_angle_alpha   90.00000000
_cell_angle_beta   90.00000000
_cell_angle_gamma   90.00000000
_symmetry_Int_Tables_number   1
_chemical_formula_structural   Mo
_chemical_formula_sum   Mo16
_cell_volume   192.76058556
_cell_formula_units_Z   16
loop_
 _symmetry_equiv_pos_site_id
 _symmetry_equiv_pos_as_xyz
  1  'x, y, z'
loop_
 _atom_site_type_symbol
 _atom_site_label
 _atom_site_symmetry_multiplicity
 _atom_site_fract_x
 _atom_site_fract_y
 _atom_site_fract_z
 _atom_site_occupancy
  Mo  Mo0  1  -0.00295984  7.28621000  3.66069000  1
  Mo  Mo1  1  1.82919000  1.80025000  -0.02026400  1
  Mo  Mo2  1  1.80630000  7.27805000  1.82998000  1
  Mo  Mo3  1  7.28858000  1.82010000  1.82181000  1
  Mo  Mo4  1  3.67024000  7.27823000  -0.01311730  1
  Mo  Mo5  1  5.47737000  1.82829000  -0.00321468  1
  Mo  Mo6  1  5.47227000  -0.01819600  1.78693000  1
  Mo  Mo7  1  3.63038000  1.82878000  1.82708000  1
  Mo  Mo8  1  7.26159000  3.64522000  3.61617000  1
  Mo  Mo9  1  1.82786000  5.45850000  3.65133000  1
  Mo  Mo10  1  1.79771000  3.64943000  1.84837000  1
  Mo  Mo11  1  0.01586910  5.45475000  1.81825000  1
  Mo  Mo12  1  3.62536000  3.63236000  3.62744000  1
  Mo  Mo13  1  5.44862000  5.46115000  3.65616000  1
  Mo  Mo14  1  5.44922000  3.62893000  1.82053000  1
  Mo  Mo15  1  3.62641000  5.47000000  1.82288000  1
