# generated using pymatgen
data_Mo
_symmetry_space_group_name_H-M   'P 1'
_cell_length_a   7.28810946
_cell_length_b   7.28810946
_cell_length_c   3.64405465
_cell_angle_alpha   90.00000000
_cell_angle_beta   90.00000000
_cell_angle_gamma   90.00000000
_symmetry_Int_Tables_number   1
_chemical_formula_structural   Mo
_chemical_formula_sum   Mo16
_cell_volume   193.55957265
_cell_formula_units_Z   16
loop_
 _symmetry_equiv_pos_site_id
 _symmetry_equiv_pos_as_xyz
  1  'x, y, z'
loop_
 _atom_site_type_symbol
 _atom_site_label
 _atom_site_symmetry_multiplicity
 _atom_site_fract_x
 _atom_site_fract_y
 _atom_site_fract_z
 _atom_site_occupancy
  Mo  Mo0  1  7.36962000  7.33514000  0.08815600  1
  Mo  Mo1  1  1.70388000  1.91562000  -0.02526120  1
  Mo  Mo2  1  1.79779000  -0.06019540  1.88514000  1
  Mo  Mo3  1  -0.02069280  1.91407000  1.83772000  1
  Mo  Mo4  1  3.60082000  7.37951000  0.00104032  1
  Mo  Mo5  1  5.47128000  1.70145000  3.65228000  1
  Mo  Mo6  1  5.50441000  7.45535000  1.76875000  1
  Mo  Mo7  1  3.63160000  1.85322000  1.91976000  1
  Mo  Mo8  1  7.26050000  3.64757000  3.66813000  1
  Mo  Mo9  1  1.90101000  5.40784000  3.54452000  1
  Mo  Mo10  1  1.78195000  3.53031000  1.78381000  1
  Mo  Mo11  1  0.01477570  5.37614000  1.79229000  1
  Mo  Mo12  1  3.69119000  3.52147000  3.63921000  1
  Mo  Mo13  1  5.51046000  5.46321000  3.57805000  1
  Mo  Mo14  1  5.45005000  3.56166000  1.79755000  1
  Mo  Mo15  1  3.55536000  5.50976000  1.82492000  1
