# generated using pymatgen
data_Mo
_symmetry_space_group_name_H-M   'P 1'
_cell_length_a   7.28810946
_cell_length_b   7.28810946
_cell_length_c   3.64405465
_cell_angle_alpha   90.00000000
_cell_angle_beta   90.00000000
_cell_angle_gamma   90.00000000
_symmetry_Int_Tables_number   1
_chemical_formula_structural   Mo
_chemical_formula_sum   Mo16
_cell_volume   193.55957265
_cell_formula_units_Z   16
loop_
 _symmetry_equiv_pos_site_id
 _symmetry_equiv_pos_as_xyz
  1  'x, y, z'
loop_
 _atom_site_type_symbol
 _atom_site_label
 _atom_site_symmetry_multiplicity
 _atom_site_fract_x
 _atom_site_fract_y
 _atom_site_fract_z
 _atom_site_occupancy
  Mo  Mo0  1  7.33082000  7.27947000  0.00889240  1
  Mo  Mo1  1  1.89788000  1.77197000  -0.00692904  1
  Mo  Mo2  1  1.85492000  -0.05716850  1.85695000  1
  Mo  Mo3  1  0.01692440  1.90375000  1.84222000  1
  Mo  Mo4  1  3.64759000  7.20855000  -0.06383500  1
  Mo  Mo5  1  5.44709000  1.77204000  3.73946000  1
  Mo  Mo6  1  5.36719000  7.20008000  1.82755000  1
  Mo  Mo7  1  3.47615000  1.84747000  1.84640000  1
  Mo  Mo8  1  7.21728000  3.67418000  3.60345000  1
  Mo  Mo9  1  1.80160000  5.46971000  3.57364000  1
  Mo  Mo10  1  1.82760000  3.68778000  1.79992000  1
  Mo  Mo11  1  0.11375200  5.52221000  1.82012000  1
  Mo  Mo12  1  3.65801000  3.66864000  3.57843000  1
  Mo  Mo13  1  5.55653000  5.36925000  3.79974000  1
  Mo  Mo14  1  5.37351000  3.77645000  1.76775000  1
  Mo  Mo15  1  3.63717000  5.41771000  1.76229000  1
