# generated using pymatgen
data_Mo
_symmetry_space_group_name_H-M   'P 1'
_cell_length_a   7.28810946
_cell_length_b   7.28810946
_cell_length_c   3.64405465
_cell_angle_alpha   90.00000000
_cell_angle_beta   90.00000000
_cell_angle_gamma   90.00000000
_symmetry_Int_Tables_number   1
_chemical_formula_structural   Mo
_chemical_formula_sum   Mo16
_cell_volume   193.55957265
_cell_formula_units_Z   16
loop_
 _symmetry_equiv_pos_site_id
 _symmetry_equiv_pos_as_xyz
  1  'x, y, z'
loop_
 _atom_site_type_symbol
 _atom_site_label
 _atom_site_symmetry_multiplicity
 _atom_site_fract_x
 _atom_site_fract_y
 _atom_site_fract_z
 _atom_site_occupancy
  Mo  Mo0  1  7.19090000  7.41086000  0.07863370  1
  Mo  Mo1  1  1.73376000  1.78675000  -0.02465160  1
  Mo  Mo2  1  1.79251000  -0.04748510  1.78134000  1
  Mo  Mo3  1  0.09748710  1.83926000  1.76571000  1
  Mo  Mo4  1  3.78866000  7.29865000  0.01925390  1
  Mo  Mo5  1  5.49827000  1.82384000  3.58255000  1
  Mo  Mo6  1  5.49395000  7.38662000  1.88223000  1
  Mo  Mo7  1  3.61049000  1.70276000  1.76228000  1
  Mo  Mo8  1  7.27907000  3.70099000  3.67987000  1
  Mo  Mo9  1  1.82531000  5.50324000  3.63278000  1
  Mo  Mo10  1  1.74655000  3.66582000  1.78888000  1
  Mo  Mo11  1  -0.04041810  5.40598000  1.92524000  1
  Mo  Mo12  1  3.66982000  3.57553000  3.64381000  1
  Mo  Mo13  1  5.52068000  5.44535000  3.57689000  1
  Mo  Mo14  1  5.49147000  3.49197000  1.81683000  1
  Mo  Mo15  1  3.52549000  5.52198000  1.84440000  1
