# generated using pymatgen
data_Mo
_symmetry_space_group_name_H-M   'P 1'
_cell_length_a   7.28810946
_cell_length_b   7.28810946
_cell_length_c   3.64405465
_cell_angle_alpha   90.00000000
_cell_angle_beta   90.00000000
_cell_angle_gamma   90.00000000
_symmetry_Int_Tables_number   1
_chemical_formula_structural   Mo
_chemical_formula_sum   Mo16
_cell_volume   193.55957265
_cell_formula_units_Z   16
loop_
 _symmetry_equiv_pos_site_id
 _symmetry_equiv_pos_as_xyz
  1  'x, y, z'
loop_
 _atom_site_type_symbol
 _atom_site_label
 _atom_site_symmetry_multiplicity
 _atom_site_fract_x
 _atom_site_fract_y
 _atom_site_fract_z
 _atom_site_occupancy
  Mo  Mo0  1  7.30525000  7.27506000  0.02508740  1
  Mo  Mo1  1  1.81917000  1.84609000  0.07599610  1
  Mo  Mo2  1  1.81084000  0.05429140  1.79429000  1
  Mo  Mo3  1  -0.05173630  1.84498000  1.81735000  1
  Mo  Mo4  1  3.64117000  7.40196000  -0.06927250  1
  Mo  Mo5  1  5.53646000  1.84374000  3.49336000  1
  Mo  Mo6  1  5.38344000  7.25207000  1.90352000  1
  Mo  Mo7  1  3.59077000  1.88012000  1.81259000  1
  Mo  Mo8  1  7.34502000  3.62230000  3.73699000  1
  Mo  Mo9  1  1.95096000  5.35323000  3.77471000  1
  Mo  Mo10  1  1.73891000  3.58046000  1.80278000  1
  Mo  Mo11  1  0.04419320  5.45048000  1.86214000  1
  Mo  Mo12  1  3.63303000  3.60376000  3.55407000  1
  Mo  Mo13  1  5.32515000  5.50647000  3.61469000  1
  Mo  Mo14  1  5.52139000  3.65019000  1.67948000  1
  Mo  Mo15  1  3.62998000  5.34690000  1.87828000  1
