# generated using pymatgen
data_Mo
_symmetry_space_group_name_H-M   'P 1'
_cell_length_a   7.28810946
_cell_length_b   7.28810946
_cell_length_c   3.64405465
_cell_angle_alpha   90.00000000
_cell_angle_beta   90.00000000
_cell_angle_gamma   90.00000000
_symmetry_Int_Tables_number   1
_chemical_formula_structural   Mo
_chemical_formula_sum   Mo16
_cell_volume   193.55957265
_cell_formula_units_Z   16
loop_
 _symmetry_equiv_pos_site_id
 _symmetry_equiv_pos_as_xyz
  1  'x, y, z'
loop_
 _atom_site_type_symbol
 _atom_site_label
 _atom_site_symmetry_multiplicity
 _atom_site_fract_x
 _atom_site_fract_y
 _atom_site_fract_z
 _atom_site_occupancy
  Mo  Mo0  1  7.28882000  7.19448000  -0.08038590  1
  Mo  Mo1  1  1.79980000  1.79297000  0.05340810  1
  Mo  Mo2  1  1.78578000  -0.13479900  1.63916000  1
  Mo  Mo3  1  -0.00891885  1.77375000  1.80955000  1
  Mo  Mo4  1  3.67307000  7.39705000  0.00636227  1
  Mo  Mo5  1  5.57947000  1.73407000  3.63588000  1
  Mo  Mo6  1  5.42064000  7.34118000  1.88623000  1
  Mo  Mo7  1  3.69236000  1.95107000  1.89723000  1
  Mo  Mo8  1  7.26092000  3.67514000  3.69005000  1
  Mo  Mo9  1  1.88369000  5.37052000  3.58946000  1
  Mo  Mo10  1  1.73236000  3.64153000  1.82763000  1
  Mo  Mo11  1  0.00741037  5.45738000  1.74217000  1
  Mo  Mo12  1  3.62124000  3.73198000  3.66399000  1
  Mo  Mo13  1  5.35574000  5.57401000  3.68119000  1
  Mo  Mo14  1  5.49513000  3.60534000  1.89403000  1
  Mo  Mo15  1  3.63648000  5.40644000  1.82011000  1
