# generated using pymatgen
data_Mo
_symmetry_space_group_name_H-M   'P 1'
_cell_length_a   7.28810946
_cell_length_b   7.28810946
_cell_length_c   3.64405465
_cell_angle_alpha   90.00000000
_cell_angle_beta   90.00000000
_cell_angle_gamma   90.00000000
_symmetry_Int_Tables_number   1
_chemical_formula_structural   Mo
_chemical_formula_sum   Mo16
_cell_volume   193.55957265
_cell_formula_units_Z   16
loop_
 _symmetry_equiv_pos_site_id
 _symmetry_equiv_pos_as_xyz
  1  'x, y, z'
loop_
 _atom_site_type_symbol
 _atom_site_label
 _atom_site_symmetry_multiplicity
 _atom_site_fract_x
 _atom_site_fract_y
 _atom_site_fract_z
 _atom_site_occupancy
  Mo  Mo0  1  7.22615000  7.26150000  -0.01683340  1
  Mo  Mo1  1  1.84055000  1.82885000  -0.00873375  1
  Mo  Mo2  1  1.80372000  0.07168000  1.80601000  1
  Mo  Mo3  1  0.09234420  1.85861000  1.78970000  1
  Mo  Mo4  1  3.66057000  7.35922000  -0.00138073  1
  Mo  Mo5  1  5.51955000  1.94032000  3.61846000  1
  Mo  Mo6  1  5.49940000  7.21768000  1.90040000  1
  Mo  Mo7  1  3.55159000  1.73047000  1.73030000  1
  Mo  Mo8  1  7.18930000  3.69364000  3.59364000  1
  Mo  Mo9  1  1.84090000  5.42880000  3.75634000  1
  Mo  Mo10  1  1.90277000  3.66445000  1.83626000  1
  Mo  Mo11  1  0.04410770  5.43019000  1.89492000  1
  Mo  Mo12  1  3.67641000  3.60604000  3.59004000  1
  Mo  Mo13  1  5.28183000  5.47563000  3.68803000  1
  Mo  Mo14  1  5.42873000  3.53034000  1.82451000  1
  Mo  Mo15  1  3.66607000  5.41471000  1.75439000  1
