# generated using pymatgen
data_Mo
_symmetry_space_group_name_H-M   'P 1'
_cell_length_a   7.28810946
_cell_length_b   7.28810946
_cell_length_c   3.64405465
_cell_angle_alpha   90.00000000
_cell_angle_beta   90.00000000
_cell_angle_gamma   90.00000000
_symmetry_Int_Tables_number   1
_chemical_formula_structural   Mo
_chemical_formula_sum   Mo16
_cell_volume   193.55957265
_cell_formula_units_Z   16
loop_
 _symmetry_equiv_pos_site_id
 _symmetry_equiv_pos_as_xyz
  1  'x, y, z'
loop_
 _atom_site_type_symbol
 _atom_site_label
 _atom_site_symmetry_multiplicity
 _atom_site_fract_x
 _atom_site_fract_y
 _atom_site_fract_z
 _atom_site_occupancy
  Mo  Mo0  1  7.25808000  7.31558000  -0.09833470  1
  Mo  Mo1  1  1.83446000  1.80271000  0.08845090  1
  Mo  Mo2  1  1.81428000  -0.02980210  1.75215000  1
  Mo  Mo3  1  0.13475400  1.94315000  1.73403000  1
  Mo  Mo4  1  3.60135000  7.27177000  -0.03621220  1
  Mo  Mo5  1  5.38846000  1.88937000  3.64166000  1
  Mo  Mo6  1  5.43142000  7.28176000  1.76076000  1
  Mo  Mo7  1  3.65644000  1.84057000  1.81887000  1
  Mo  Mo8  1  7.23218000  3.70501000  3.66068000  1
  Mo  Mo9  1  1.77777000  5.49986000  3.59616000  1
  Mo  Mo10  1  1.93326000  3.47673000  2.02913000  1
  Mo  Mo11  1  -0.00229335  5.48138000  1.85635000  1
  Mo  Mo12  1  3.61710000  3.59956000  3.68064000  1
  Mo  Mo13  1  5.50670000  5.36374000  3.61587000  1
  Mo  Mo14  1  5.39492000  3.63099000  1.83387000  1
  Mo  Mo15  1  3.64510000  5.43974000  1.82198000  1
