# generated using pymatgen
data_Mo
_symmetry_space_group_name_H-M   'P 1'
_cell_length_a   7.28810946
_cell_length_b   7.28810946
_cell_length_c   3.64405465
_cell_angle_alpha   90.00000000
_cell_angle_beta   90.00000000
_cell_angle_gamma   90.00000000
_symmetry_Int_Tables_number   1
_chemical_formula_structural   Mo
_chemical_formula_sum   Mo16
_cell_volume   193.55957265
_cell_formula_units_Z   16
loop_
 _symmetry_equiv_pos_site_id
 _symmetry_equiv_pos_as_xyz
  1  'x, y, z'
loop_
 _atom_site_type_symbol
 _atom_site_label
 _atom_site_symmetry_multiplicity
 _atom_site_fract_x
 _atom_site_fract_y
 _atom_site_fract_z
 _atom_site_occupancy
  Mo  Mo0  1  7.25053000  7.29533000  0.03433270  1
  Mo  Mo1  1  1.73412000  1.82877000  -0.05789470  1
  Mo  Mo2  1  1.90007000  -0.08301640  1.79070000  1
  Mo  Mo3  1  0.07232460  1.83164000  1.72175000  1
  Mo  Mo4  1  3.77009000  7.37910000  -0.06117350  1
  Mo  Mo5  1  5.47595000  1.72914000  3.64428000  1
  Mo  Mo6  1  5.48749000  7.18996000  1.88105000  1
  Mo  Mo7  1  3.58901000  1.79846000  1.76263000  1
  Mo  Mo8  1  7.24139000  3.66719000  3.69553000  1
  Mo  Mo9  1  1.90253000  5.51739000  3.71660000  1
  Mo  Mo10  1  1.80994000  3.67725000  1.88943000  1
  Mo  Mo11  1  -0.18186300  5.42963000  1.80348000  1
  Mo  Mo12  1  3.66065000  3.69282000  3.52825000  1
  Mo  Mo13  1  5.52469000  5.43394000  3.74863000  1
  Mo  Mo14  1  5.32072000  3.66426000  1.78886000  1
  Mo  Mo15  1  3.66636000  5.46023000  1.86961000  1
