# generated using pymatgen
data_Mo
_symmetry_space_group_name_H-M   'P 1'
_cell_length_a   7.28810946
_cell_length_b   7.28810946
_cell_length_c   3.64405465
_cell_angle_alpha   90.00000000
_cell_angle_beta   90.00000000
_cell_angle_gamma   90.00000000
_symmetry_Int_Tables_number   1
_chemical_formula_structural   Mo
_chemical_formula_sum   Mo16
_cell_volume   193.55957265
_cell_formula_units_Z   16
loop_
 _symmetry_equiv_pos_site_id
 _symmetry_equiv_pos_as_xyz
  1  'x, y, z'
loop_
 _atom_site_type_symbol
 _atom_site_label
 _atom_site_symmetry_multiplicity
 _atom_site_fract_x
 _atom_site_fract_y
 _atom_site_fract_z
 _atom_site_occupancy
  Mo  Mo0  1  7.21929000  7.23794000  0.00370235  1
  Mo  Mo1  1  1.73578000  1.82736000  0.03995010  1
  Mo  Mo2  1  1.80594000  0.03682070  1.85575000  1
  Mo  Mo3  1  0.02231210  1.83305000  1.82369000  1
  Mo  Mo4  1  3.60456000  7.30388000  0.00154534  1
  Mo  Mo5  1  5.32712000  1.84382000  3.68428000  1
  Mo  Mo6  1  5.38434000  7.26307000  1.77192000  1
  Mo  Mo7  1  3.62582000  1.81119000  1.86655000  1
  Mo  Mo8  1  7.34907000  3.72240000  3.59007000  1
  Mo  Mo9  1  1.95466000  5.45753000  3.60112000  1
  Mo  Mo10  1  1.86998000  3.46675000  1.87739000  1
  Mo  Mo11  1  0.04279720  5.46363000  1.73741000  1
  Mo  Mo12  1  3.68003000  3.64536000  3.65683000  1
  Mo  Mo13  1  5.36481000  5.42191000  3.62108000  1
  Mo  Mo14  1  5.55956000  3.67485000  1.87638000  1
  Mo  Mo15  1  3.67793000  5.50253000  1.74837000  1
