# generated using pymatgen
data_Mo
_symmetry_space_group_name_H-M   'P 1'
_cell_length_a   7.28810946
_cell_length_b   7.28810946
_cell_length_c   3.64405465
_cell_angle_alpha   90.00000000
_cell_angle_beta   90.00000000
_cell_angle_gamma   90.00000000
_symmetry_Int_Tables_number   1
_chemical_formula_structural   Mo
_chemical_formula_sum   Mo16
_cell_volume   193.55957265
_cell_formula_units_Z   16
loop_
 _symmetry_equiv_pos_site_id
 _symmetry_equiv_pos_as_xyz
  1  'x, y, z'
loop_
 _atom_site_type_symbol
 _atom_site_label
 _atom_site_symmetry_multiplicity
 _atom_site_fract_x
 _atom_site_fract_y
 _atom_site_fract_z
 _atom_site_occupancy
  Mo  Mo0  1  7.26471000  7.31059000  0.04009280  1
  Mo  Mo1  1  1.80357000  1.83716000  -0.08614630  1
  Mo  Mo2  1  1.73753000  -0.06662930  1.81401000  1
  Mo  Mo3  1  0.02746730  1.87303000  1.74884000  1
  Mo  Mo4  1  3.60328000  7.25943000  -0.01654320  1
  Mo  Mo5  1  5.44594000  1.67479000  3.60081000  1
  Mo  Mo6  1  5.60647000  7.33721000  1.75175000  1
  Mo  Mo7  1  3.66997000  1.83273000  1.82340000  1
  Mo  Mo8  1  7.10688000  3.76484000  3.73205000  1
  Mo  Mo9  1  1.81825000  5.37338000  3.58038000  1
  Mo  Mo10  1  1.95019000  3.58323000  1.82554000  1
  Mo  Mo11  1  -0.03448170  5.46916000  1.86866000  1
  Mo  Mo12  1  3.81840000  3.65240000  3.68216000  1
  Mo  Mo13  1  5.40304000  5.57062000  3.67137000  1
  Mo  Mo14  1  5.44388000  3.61433000  1.83557000  1
  Mo  Mo15  1  3.55891000  5.42583000  1.88412000  1
