# generated using pymatgen
data_Mo
_symmetry_space_group_name_H-M   'P 1'
_cell_length_a   7.27806742
_cell_length_b   7.27806742
_cell_length_c   3.63903379
_cell_angle_alpha   90.00000000
_cell_angle_beta   90.00000000
_cell_angle_gamma   90.00000000
_symmetry_Int_Tables_number   1
_chemical_formula_structural   Mo
_chemical_formula_sum   Mo16
_cell_volume   192.76058556
_cell_formula_units_Z   16
loop_
 _symmetry_equiv_pos_site_id
 _symmetry_equiv_pos_as_xyz
  1  'x, y, z'
loop_
 _atom_site_type_symbol
 _atom_site_label
 _atom_site_symmetry_multiplicity
 _atom_site_fract_x
 _atom_site_fract_y
 _atom_site_fract_z
 _atom_site_occupancy
  Mo  Mo0  1  0.01043360  7.26636000  3.62152000  1
  Mo  Mo1  1  1.79489000  1.82384000  -0.01645310  1
  Mo  Mo2  1  1.84945000  7.29709000  1.80991000  1
  Mo  Mo3  1  7.27690000  1.82388000  1.83004000  1
  Mo  Mo4  1  3.64870000  7.29083000  0.00079437  1
  Mo  Mo5  1  5.47656000  1.80693000  0.00294432  1
  Mo  Mo6  1  5.47236000  -0.00027715  1.83062000  1
  Mo  Mo7  1  3.63704000  1.81389000  1.81188000  1
  Mo  Mo8  1  7.29281000  3.64804000  3.64350000  1
  Mo  Mo9  1  1.78259000  5.47587000  3.66017000  1
  Mo  Mo10  1  1.82762000  3.62127000  1.81888000  1
  Mo  Mo11  1  -0.01912610  5.44837000  1.84765000  1
  Mo  Mo12  1  3.61415000  3.63160000  3.65428000  1
  Mo  Mo13  1  5.46294000  5.45184000  3.62236000  1
  Mo  Mo14  1  5.44767000  3.64369000  1.79922000  1
  Mo  Mo15  1  3.64902000  5.45883000  1.81372000  1
