# generated using pymatgen
data_Mo
_symmetry_space_group_name_H-M   'P 1'
_cell_length_a   7.28810946
_cell_length_b   7.28810946
_cell_length_c   3.64405465
_cell_angle_alpha   90.00000000
_cell_angle_beta   90.00000000
_cell_angle_gamma   90.00000000
_symmetry_Int_Tables_number   1
_chemical_formula_structural   Mo
_chemical_formula_sum   Mo16
_cell_volume   193.55957265
_cell_formula_units_Z   16
loop_
 _symmetry_equiv_pos_site_id
 _symmetry_equiv_pos_as_xyz
  1  'x, y, z'
loop_
 _atom_site_type_symbol
 _atom_site_label
 _atom_site_symmetry_multiplicity
 _atom_site_fract_x
 _atom_site_fract_y
 _atom_site_fract_z
 _atom_site_occupancy
  Mo  Mo0  1  7.39005000  7.21457000  0.05758120  1
  Mo  Mo1  1  1.84744000  1.82468000  -0.03047330  1
  Mo  Mo2  1  1.80528000  0.03760130  1.84139000  1
  Mo  Mo3  1  0.04027620  1.87718000  1.79827000  1
  Mo  Mo4  1  3.60915000  7.39070000  -0.04100540  1
  Mo  Mo5  1  5.50591000  1.80332000  3.62679000  1
  Mo  Mo6  1  5.41210000  7.22762000  1.82371000  1
  Mo  Mo7  1  3.60883000  1.84765000  1.84705000  1
  Mo  Mo8  1  7.22103000  3.79514000  3.63501000  1
  Mo  Mo9  1  1.86573000  5.46740000  3.72441000  1
  Mo  Mo10  1  1.73427000  3.68396000  1.66686000  1
  Mo  Mo11  1  -0.00791101  5.49674000  1.81337000  1
  Mo  Mo12  1  3.70272000  3.58475000  3.61644000  1
  Mo  Mo13  1  5.34519000  5.38250000  3.65331000  1
  Mo  Mo14  1  5.48922000  3.57119000  1.85847000  1
  Mo  Mo15  1  3.65472000  5.30710000  1.86488000  1
