# generated using pymatgen
data_Mo
_symmetry_space_group_name_H-M   'P 1'
_cell_length_a   7.28810946
_cell_length_b   7.28810946
_cell_length_c   3.64405465
_cell_angle_alpha   90.00000000
_cell_angle_beta   90.00000000
_cell_angle_gamma   90.00000000
_symmetry_Int_Tables_number   1
_chemical_formula_structural   Mo
_chemical_formula_sum   Mo16
_cell_volume   193.55957265
_cell_formula_units_Z   16
loop_
 _symmetry_equiv_pos_site_id
 _symmetry_equiv_pos_as_xyz
  1  'x, y, z'
loop_
 _atom_site_type_symbol
 _atom_site_label
 _atom_site_symmetry_multiplicity
 _atom_site_fract_x
 _atom_site_fract_y
 _atom_site_fract_z
 _atom_site_occupancy
  Mo  Mo0  1  7.23736000  7.23267000  -0.10245100  1
  Mo  Mo1  1  1.72242000  1.83659000  -0.03023950  1
  Mo  Mo2  1  1.92335000  -0.06535610  1.80260000  1
  Mo  Mo3  1  0.02186290  1.67809000  1.78893000  1
  Mo  Mo4  1  3.67159000  7.26517000  0.01226590  1
  Mo  Mo5  1  5.54887000  1.86863000  3.72610000  1
  Mo  Mo6  1  5.45016000  7.34527000  1.75971000  1
  Mo  Mo7  1  3.59924000  1.81399000  1.89520000  1
  Mo  Mo8  1  7.26263000  3.62139000  3.64968000  1
  Mo  Mo9  1  1.84939000  5.38267000  3.54461000  1
  Mo  Mo10  1  1.78591000  3.67493000  1.87154000  1
  Mo  Mo11  1  -0.10317600  5.49666000  1.81324000  1
  Mo  Mo12  1  3.63718000  3.61524000  3.72742000  1
  Mo  Mo13  1  5.43504000  5.53976000  3.66225000  1
  Mo  Mo14  1  5.50814000  3.69840000  1.83481000  1
  Mo  Mo15  1  3.67403000  5.50801000  1.80038000  1
