# generated using pymatgen
data_Mo
_symmetry_space_group_name_H-M   'P 1'
_cell_length_a   7.28810946
_cell_length_b   7.28810946
_cell_length_c   3.64405465
_cell_angle_alpha   90.00000000
_cell_angle_beta   90.00000000
_cell_angle_gamma   90.00000000
_symmetry_Int_Tables_number   1
_chemical_formula_structural   Mo
_chemical_formula_sum   Mo16
_cell_volume   193.55957265
_cell_formula_units_Z   16
loop_
 _symmetry_equiv_pos_site_id
 _symmetry_equiv_pos_as_xyz
  1  'x, y, z'
loop_
 _atom_site_type_symbol
 _atom_site_label
 _atom_site_symmetry_multiplicity
 _atom_site_fract_x
 _atom_site_fract_y
 _atom_site_fract_z
 _atom_site_occupancy
  Mo  Mo0  1  7.35986000  7.31056000  -0.03224590  1
  Mo  Mo1  1  1.70282000  1.85728000  -0.04966670  1
  Mo  Mo2  1  1.93439000  -0.02607480  1.83682000  1
  Mo  Mo3  1  0.02437890  1.83338000  1.74531000  1
  Mo  Mo4  1  3.62437000  7.27673000  -0.11691600  1
  Mo  Mo5  1  5.44566000  1.63163000  3.60585000  1
  Mo  Mo6  1  5.42924000  7.38050000  1.85501000  1
  Mo  Mo7  1  3.59450000  1.90694000  1.75248000  1
  Mo  Mo8  1  7.30994000  3.64719000  3.66607000  1
  Mo  Mo9  1  1.85525000  5.46059000  3.71263000  1
  Mo  Mo10  1  1.73367000  3.68233000  1.84690000  1
  Mo  Mo11  1  0.05199260  5.50911000  1.85971000  1
  Mo  Mo12  1  3.61539000  3.64885000  3.61180000  1
  Mo  Mo13  1  5.52626000  5.42308000  3.69433000  1
  Mo  Mo14  1  5.47110000  3.54770000  1.89320000  1
  Mo  Mo15  1  3.54521000  5.42232000  1.87477000  1
