# generated using pymatgen
data_Mo
_symmetry_space_group_name_H-M   'P 1'
_cell_length_a   7.28810946
_cell_length_b   7.28810946
_cell_length_c   3.64405465
_cell_angle_alpha   90.00000000
_cell_angle_beta   90.00000000
_cell_angle_gamma   90.00000000
_symmetry_Int_Tables_number   1
_chemical_formula_structural   Mo
_chemical_formula_sum   Mo16
_cell_volume   193.55957265
_cell_formula_units_Z   16
loop_
 _symmetry_equiv_pos_site_id
 _symmetry_equiv_pos_as_xyz
  1  'x, y, z'
loop_
 _atom_site_type_symbol
 _atom_site_label
 _atom_site_symmetry_multiplicity
 _atom_site_fract_x
 _atom_site_fract_y
 _atom_site_fract_z
 _atom_site_occupancy
  Mo  Mo0  1  7.27060000  7.31624000  0.00785841  1
  Mo  Mo1  1  1.82001000  1.91358000  0.08199390  1
  Mo  Mo2  1  1.78437000  -0.01606400  1.78652000  1
  Mo  Mo3  1  -0.07289080  1.77351000  1.79469000  1
  Mo  Mo4  1  3.60724000  7.42290000  -0.01616230  1
  Mo  Mo5  1  5.43963000  1.80999000  3.63579000  1
  Mo  Mo6  1  5.39392000  7.16327000  1.88529000  1
  Mo  Mo7  1  3.65485000  1.92635000  1.88971000  1
  Mo  Mo8  1  7.18462000  3.62425000  3.59665000  1
  Mo  Mo9  1  1.89493000  5.37360000  3.58095000  1
  Mo  Mo10  1  1.84537000  3.67824000  1.74793000  1
  Mo  Mo11  1  -0.01058900  5.44695000  1.77343000  1
  Mo  Mo12  1  3.69917000  3.67270000  3.68408000  1
  Mo  Mo13  1  5.43157000  5.52853000  3.64972000  1
  Mo  Mo14  1  5.48035000  3.56375000  1.86685000  1
  Mo  Mo15  1  3.80085000  5.31433000  1.79074000  1
