# generated using pymatgen
data_Mo
_symmetry_space_group_name_H-M   'P 1'
_cell_length_a   7.28810946
_cell_length_b   7.28810946
_cell_length_c   3.64405465
_cell_angle_alpha   90.00000000
_cell_angle_beta   90.00000000
_cell_angle_gamma   90.00000000
_symmetry_Int_Tables_number   1
_chemical_formula_structural   Mo
_chemical_formula_sum   Mo16
_cell_volume   193.55957265
_cell_formula_units_Z   16
loop_
 _symmetry_equiv_pos_site_id
 _symmetry_equiv_pos_as_xyz
  1  'x, y, z'
loop_
 _atom_site_type_symbol
 _atom_site_label
 _atom_site_symmetry_multiplicity
 _atom_site_fract_x
 _atom_site_fract_y
 _atom_site_fract_z
 _atom_site_occupancy
  Mo  Mo0  1  7.23668000  7.23628000  -0.04790360  1
  Mo  Mo1  1  1.76808000  1.79858000  0.01740810  1
  Mo  Mo2  1  1.78204000  -0.04031690  1.75468000  1
  Mo  Mo3  1  -0.01968950  1.80625000  1.85502000  1
  Mo  Mo4  1  3.59136000  7.24126000  -0.09349370  1
  Mo  Mo5  1  5.44690000  1.90132000  3.67235000  1
  Mo  Mo6  1  5.48009000  7.27683000  1.69215000  1
  Mo  Mo7  1  3.72375000  1.78310000  1.82311000  1
  Mo  Mo8  1  7.19431000  3.63381000  3.70675000  1
  Mo  Mo9  1  1.74909000  5.56032000  3.62482000  1
  Mo  Mo10  1  1.89223000  3.60385000  1.94437000  1
  Mo  Mo11  1  0.06236580  5.47697000  1.80117000  1
  Mo  Mo12  1  3.72813000  3.63398000  3.72939000  1
  Mo  Mo13  1  5.53709000  5.44326000  3.49461000  1
  Mo  Mo14  1  5.46332000  3.69869000  1.93757000  1
  Mo  Mo15  1  3.58823000  5.45793000  1.84407000  1
