# generated using pymatgen
data_Mo
_symmetry_space_group_name_H-M   'P 1'
_cell_length_a   7.28810946
_cell_length_b   7.28810946
_cell_length_c   3.64405465
_cell_angle_alpha   90.00000000
_cell_angle_beta   90.00000000
_cell_angle_gamma   90.00000000
_symmetry_Int_Tables_number   1
_chemical_formula_structural   Mo
_chemical_formula_sum   Mo16
_cell_volume   193.55957265
_cell_formula_units_Z   16
loop_
 _symmetry_equiv_pos_site_id
 _symmetry_equiv_pos_as_xyz
  1  'x, y, z'
loop_
 _atom_site_type_symbol
 _atom_site_label
 _atom_site_symmetry_multiplicity
 _atom_site_fract_x
 _atom_site_fract_y
 _atom_site_fract_z
 _atom_site_occupancy
  Mo  Mo0  1  7.24172000  7.34526000  0.03630420  1
  Mo  Mo1  1  1.81347000  1.78144000  -0.01142940  1
  Mo  Mo2  1  1.88574000  -0.17379900  1.87635000  1
  Mo  Mo3  1  -0.02536170  1.87561000  1.71296000  1
  Mo  Mo4  1  3.64125000  7.30238000  -0.09474740  1
  Mo  Mo5  1  5.38860000  1.81705000  3.59270000  1
  Mo  Mo6  1  5.38908000  7.23159000  1.75146000  1
  Mo  Mo7  1  3.66057000  1.68024000  1.82934000  1
  Mo  Mo8  1  7.26462000  3.72274000  3.63772000  1
  Mo  Mo9  1  1.89116000  5.54371000  3.74097000  1
  Mo  Mo10  1  1.93266000  3.62721000  1.80501000  1
  Mo  Mo11  1  -0.05034610  5.51554000  1.78805000  1
  Mo  Mo12  1  3.70769000  3.65855000  3.61318000  1
  Mo  Mo13  1  5.53609000  5.44602000  3.71241000  1
  Mo  Mo14  1  5.36086000  3.65542000  1.87803000  1
  Mo  Mo15  1  3.58621000  5.48314000  1.88775000  1
