# generated using pymatgen
data_Mo
_symmetry_space_group_name_H-M   'P 1'
_cell_length_a   7.28810946
_cell_length_b   7.28810946
_cell_length_c   3.64405465
_cell_angle_alpha   90.00000000
_cell_angle_beta   90.00000000
_cell_angle_gamma   90.00000000
_symmetry_Int_Tables_number   1
_chemical_formula_structural   Mo
_chemical_formula_sum   Mo16
_cell_volume   193.55957265
_cell_formula_units_Z   16
loop_
 _symmetry_equiv_pos_site_id
 _symmetry_equiv_pos_as_xyz
  1  'x, y, z'
loop_
 _atom_site_type_symbol
 _atom_site_label
 _atom_site_symmetry_multiplicity
 _atom_site_fract_x
 _atom_site_fract_y
 _atom_site_fract_z
 _atom_site_occupancy
  Mo  Mo0  1  7.35539000  7.27339000  -0.09188710  1
  Mo  Mo1  1  1.76826000  1.93047000  0.09033740  1
  Mo  Mo2  1  1.79193000  0.09541940  1.78889000  1
  Mo  Mo3  1  -0.03560100  1.89085000  1.82564000  1
  Mo  Mo4  1  3.57186000  7.35720000  0.04646520  1
  Mo  Mo5  1  5.53549000  1.81342000  3.70664000  1
  Mo  Mo6  1  5.46811000  7.33011000  1.87951000  1
  Mo  Mo7  1  3.62244000  1.69942000  1.86885000  1
  Mo  Mo8  1  7.24025000  3.53456000  3.56401000  1
  Mo  Mo9  1  1.80091000  5.34700000  3.66394000  1
  Mo  Mo10  1  1.77782000  3.74711000  1.81971000  1
  Mo  Mo11  1  0.00086192  5.39774000  1.79016000  1
  Mo  Mo12  1  3.62785000  3.52821000  3.60063000  1
  Mo  Mo13  1  5.44079000  5.53020000  3.64873000  1
  Mo  Mo14  1  5.48317000  3.53135000  1.83484000  1
  Mo  Mo15  1  3.77447000  5.50565000  1.71959000  1
