# generated using pymatgen
data_Mo
_symmetry_space_group_name_H-M   'P 1'
_cell_length_a   7.28810946
_cell_length_b   7.28810946
_cell_length_c   3.64405465
_cell_angle_alpha   90.00000000
_cell_angle_beta   90.00000000
_cell_angle_gamma   90.00000000
_symmetry_Int_Tables_number   1
_chemical_formula_structural   Mo
_chemical_formula_sum   Mo16
_cell_volume   193.55957265
_cell_formula_units_Z   16
loop_
 _symmetry_equiv_pos_site_id
 _symmetry_equiv_pos_as_xyz
  1  'x, y, z'
loop_
 _atom_site_type_symbol
 _atom_site_label
 _atom_site_symmetry_multiplicity
 _atom_site_fract_x
 _atom_site_fract_y
 _atom_site_fract_z
 _atom_site_occupancy
  Mo  Mo0  1  7.36102000  7.32965000  0.02428800  1
  Mo  Mo1  1  1.89266000  1.75237000  -0.09262820  1
  Mo  Mo2  1  1.66240000  0.06795090  1.81344000  1
  Mo  Mo3  1  -0.00308337  1.92965000  1.77803000  1
  Mo  Mo4  1  3.50555000  7.22220000  0.00232839  1
  Mo  Mo5  1  5.43108000  1.77299000  3.66294000  1
  Mo  Mo6  1  5.51244000  7.28816000  1.81097000  1
  Mo  Mo7  1  3.73410000  1.77621000  1.82464000  1
  Mo  Mo8  1  7.26172000  3.59966000  3.67202000  1
  Mo  Mo9  1  1.74241000  5.35210000  3.56484000  1
  Mo  Mo10  1  1.94472000  3.68976000  1.80516000  1
  Mo  Mo11  1  0.02539020  5.40886000  1.79429000  1
  Mo  Mo12  1  3.64311000  3.70222000  3.75346000  1
  Mo  Mo13  1  5.48301000  5.55911000  3.61113000  1
  Mo  Mo14  1  5.45619000  3.60599000  1.81770000  1
  Mo  Mo15  1  3.57130000  5.45522000  1.91345000  1
