# generated using pymatgen
data_Mo
_symmetry_space_group_name_H-M   'P 1'
_cell_length_a   7.28810946
_cell_length_b   7.28810946
_cell_length_c   3.64405465
_cell_angle_alpha   90.00000000
_cell_angle_beta   90.00000000
_cell_angle_gamma   90.00000000
_symmetry_Int_Tables_number   1
_chemical_formula_structural   Mo
_chemical_formula_sum   Mo16
_cell_volume   193.55957265
_cell_formula_units_Z   16
loop_
 _symmetry_equiv_pos_site_id
 _symmetry_equiv_pos_as_xyz
  1  'x, y, z'
loop_
 _atom_site_type_symbol
 _atom_site_label
 _atom_site_symmetry_multiplicity
 _atom_site_fract_x
 _atom_site_fract_y
 _atom_site_fract_z
 _atom_site_occupancy
  Mo  Mo0  1  7.28599000  7.13613000  -0.02357070  1
  Mo  Mo1  1  1.71034000  1.76643000  0.01609270  1
  Mo  Mo2  1  1.81705000  -0.14649500  1.77677000  1
  Mo  Mo3  1  -0.06550670  1.82784000  1.77620000  1
  Mo  Mo4  1  3.66021000  7.27268000  0.04875190  1
  Mo  Mo5  1  5.47028000  1.78085000  3.70925000  1
  Mo  Mo6  1  5.42600000  7.29680000  1.82858000  1
  Mo  Mo7  1  3.66582000  1.84274000  1.94538000  1
  Mo  Mo8  1  7.40627000  3.74562000  3.69138000  1
  Mo  Mo9  1  1.93935000  5.56938000  3.53004000  1
  Mo  Mo10  1  1.87040000  3.74116000  1.81695000  1
  Mo  Mo11  1  -0.12399200  5.41179000  1.77922000  1
  Mo  Mo12  1  3.56200000  3.63979000  3.69273000  1
  Mo  Mo13  1  5.52945000  5.33234000  3.58624000  1
  Mo  Mo14  1  5.37574000  3.74311000  1.74997000  1
  Mo  Mo15  1  3.69460000  5.55193000  1.83208000  1
