# generated using pymatgen
data_Mo
_symmetry_space_group_name_H-M   'P 1'
_cell_length_a   7.28810946
_cell_length_b   7.28810946
_cell_length_c   3.64405465
_cell_angle_alpha   90.00000000
_cell_angle_beta   90.00000000
_cell_angle_gamma   90.00000000
_symmetry_Int_Tables_number   1
_chemical_formula_structural   Mo
_chemical_formula_sum   Mo16
_cell_volume   193.55957265
_cell_formula_units_Z   16
loop_
 _symmetry_equiv_pos_site_id
 _symmetry_equiv_pos_as_xyz
  1  'x, y, z'
loop_
 _atom_site_type_symbol
 _atom_site_label
 _atom_site_symmetry_multiplicity
 _atom_site_fract_x
 _atom_site_fract_y
 _atom_site_fract_z
 _atom_site_occupancy
  Mo  Mo0  1  7.37728000  7.23120000  -0.00281688  1
  Mo  Mo1  1  1.77988000  1.87072000  -0.11979400  1
  Mo  Mo2  1  1.85532000  -0.06348880  1.84626000  1
  Mo  Mo3  1  0.13405300  1.59303000  1.75081000  1
  Mo  Mo4  1  3.62782000  7.18561000  0.04752770  1
  Mo  Mo5  1  5.53861000  1.74754000  3.60360000  1
  Mo  Mo6  1  5.44536000  7.45358000  1.74816000  1
  Mo  Mo7  1  3.51762000  1.84327000  1.69397000  1
  Mo  Mo8  1  7.26286000  3.71342000  3.70043000  1
  Mo  Mo9  1  1.80971000  5.41336000  3.69499000  1
  Mo  Mo10  1  1.70668000  3.61210000  1.92659000  1
  Mo  Mo11  1  -0.07667000  5.58662000  1.89438000  1
  Mo  Mo12  1  3.69877000  3.67182000  3.61401000  1
  Mo  Mo13  1  5.51977000  5.54418000  3.68665000  1
  Mo  Mo14  1  5.47288000  3.66546000  1.80449000  1
  Mo  Mo15  1  3.55406000  5.44369000  1.86679000  1
