# generated using pymatgen
data_Mo
_symmetry_space_group_name_H-M   'P 1'
_cell_length_a   7.28810946
_cell_length_b   7.28810946
_cell_length_c   3.64405465
_cell_angle_alpha   90.00000000
_cell_angle_beta   90.00000000
_cell_angle_gamma   90.00000000
_symmetry_Int_Tables_number   1
_chemical_formula_structural   Mo
_chemical_formula_sum   Mo16
_cell_volume   193.55957265
_cell_formula_units_Z   16
loop_
 _symmetry_equiv_pos_site_id
 _symmetry_equiv_pos_as_xyz
  1  'x, y, z'
loop_
 _atom_site_type_symbol
 _atom_site_label
 _atom_site_symmetry_multiplicity
 _atom_site_fract_x
 _atom_site_fract_y
 _atom_site_fract_z
 _atom_site_occupancy
  Mo  Mo0  1  7.18812000  7.31090000  -0.01544510  1
  Mo  Mo1  1  1.89995000  1.77311000  -0.02351670  1
  Mo  Mo2  1  1.77132000  -0.04428540  1.88989000  1
  Mo  Mo3  1  -0.05395780  1.81859000  1.90896000  1
  Mo  Mo4  1  3.77889000  7.26300000  -0.06076820  1
  Mo  Mo5  1  5.53149000  1.77942000  3.77587000  1
  Mo  Mo6  1  5.36850000  7.28515000  1.76036000  1
  Mo  Mo7  1  3.61888000  1.89533000  1.77548000  1
  Mo  Mo8  1  7.21818000  3.60438000  3.69395000  1
  Mo  Mo9  1  1.80160000  5.44063000  3.67881000  1
  Mo  Mo10  1  1.83313000  3.59864000  1.87205000  1
  Mo  Mo11  1  0.07645690  5.53445000  1.81129000  1
  Mo  Mo12  1  3.69724000  3.73237000  3.55103000  1
  Mo  Mo13  1  5.50956000  5.41263000  3.67734000  1
  Mo  Mo14  1  5.36218000  3.66644000  1.71330000  1
  Mo  Mo15  1  3.62245000  5.44136000  1.74745000  1
