# generated using pymatgen
data_Mo
_symmetry_space_group_name_H-M   'P 1'
_cell_length_a   7.28810946
_cell_length_b   7.28810946
_cell_length_c   3.64405465
_cell_angle_alpha   90.00000000
_cell_angle_beta   90.00000000
_cell_angle_gamma   90.00000000
_symmetry_Int_Tables_number   1
_chemical_formula_structural   Mo
_chemical_formula_sum   Mo16
_cell_volume   193.55957265
_cell_formula_units_Z   16
loop_
 _symmetry_equiv_pos_site_id
 _symmetry_equiv_pos_as_xyz
  1  'x, y, z'
loop_
 _atom_site_type_symbol
 _atom_site_label
 _atom_site_symmetry_multiplicity
 _atom_site_fract_x
 _atom_site_fract_y
 _atom_site_fract_z
 _atom_site_occupancy
  Mo  Mo0  1  7.23541000  7.30621000  0.06381370  1
  Mo  Mo1  1  1.78218000  1.85349000  -0.06586950  1
  Mo  Mo2  1  1.89643000  -0.08122310  1.79718000  1
  Mo  Mo3  1  0.12977000  1.85112000  1.79040000  1
  Mo  Mo4  1  3.71370000  7.29070000  -0.05639900  1
  Mo  Mo5  1  5.46792000  1.79590000  3.73802000  1
  Mo  Mo6  1  5.41659000  7.28897000  1.83587000  1
  Mo  Mo7  1  3.63547000  1.87416000  1.71799000  1
  Mo  Mo8  1  7.24302000  3.61588000  3.62687000  1
  Mo  Mo9  1  1.81204000  5.45672000  3.65066000  1
  Mo  Mo10  1  1.80832000  3.59598000  1.75079000  1
  Mo  Mo11  1  -0.00585315  5.44892000  1.84304000  1
  Mo  Mo12  1  3.50969000  3.72578000  3.57658000  1
  Mo  Mo13  1  5.47615000  5.42510000  3.66499000  1
  Mo  Mo14  1  5.43465000  3.54900000  1.96442000  1
  Mo  Mo15  1  3.66850000  5.51543000  1.85772000  1
