# generated using pymatgen
data_Mo
_symmetry_space_group_name_H-M   'P 1'
_cell_length_a   7.28810946
_cell_length_b   7.28810946
_cell_length_c   3.64405465
_cell_angle_alpha   90.00000000
_cell_angle_beta   90.00000000
_cell_angle_gamma   90.00000000
_symmetry_Int_Tables_number   1
_chemical_formula_structural   Mo
_chemical_formula_sum   Mo16
_cell_volume   193.55957265
_cell_formula_units_Z   16
loop_
 _symmetry_equiv_pos_site_id
 _symmetry_equiv_pos_as_xyz
  1  'x, y, z'
loop_
 _atom_site_type_symbol
 _atom_site_label
 _atom_site_symmetry_multiplicity
 _atom_site_fract_x
 _atom_site_fract_y
 _atom_site_fract_z
 _atom_site_occupancy
  Mo  Mo0  1  7.34082000  7.28544000  -0.01914720  1
  Mo  Mo1  1  1.80626000  1.82185000  0.08228740  1
  Mo  Mo2  1  1.76360000  0.01159170  1.84114000  1
  Mo  Mo3  1  0.02371740  1.82348000  1.88875000  1
  Mo  Mo4  1  3.57894000  7.44299000  -0.00944275  1
  Mo  Mo5  1  5.52093000  1.94531000  3.64809000  1
  Mo  Mo6  1  5.55532000  7.38077000  1.81532000  1
  Mo  Mo7  1  3.54422000  1.76543000  1.75567000  1
  Mo  Mo8  1  7.21883000  3.59927000  3.55891000  1
  Mo  Mo9  1  1.82209000  5.32432000  3.70934000  1
  Mo  Mo10  1  1.87290000  3.65963000  1.84347000  1
  Mo  Mo11  1  0.09028550  5.43611000  1.78694000  1
  Mo  Mo12  1  3.62250000  3.53103000  3.62630000  1
  Mo  Mo13  1  5.38464000  5.57339000  3.63098000  1
  Mo  Mo14  1  5.40629000  3.49822000  1.84766000  1
  Mo  Mo15  1  3.67267000  5.41325000  1.74979000  1
