# generated using pymatgen
data_Mo
_symmetry_space_group_name_H-M   'P 1'
_cell_length_a   7.28810946
_cell_length_b   7.28810946
_cell_length_c   3.64405465
_cell_angle_alpha   90.00000000
_cell_angle_beta   90.00000000
_cell_angle_gamma   90.00000000
_symmetry_Int_Tables_number   1
_chemical_formula_structural   Mo
_chemical_formula_sum   Mo16
_cell_volume   193.55957265
_cell_formula_units_Z   16
loop_
 _symmetry_equiv_pos_site_id
 _symmetry_equiv_pos_as_xyz
  1  'x, y, z'
loop_
 _atom_site_type_symbol
 _atom_site_label
 _atom_site_symmetry_multiplicity
 _atom_site_fract_x
 _atom_site_fract_y
 _atom_site_fract_z
 _atom_site_occupancy
  Mo  Mo0  1  7.27974000  7.20733000  0.03265270  1
  Mo  Mo1  1  1.82505000  1.84437000  0.04287440  1
  Mo  Mo2  1  1.77166000  0.00532697  1.79172000  1
  Mo  Mo3  1  0.03795860  1.72533000  1.95276000  1
  Mo  Mo4  1  3.57804000  7.26939000  0.05846660  1
  Mo  Mo5  1  5.50384000  2.02037000  3.66498000  1
  Mo  Mo6  1  5.43600000  7.38979000  1.85021000  1
  Mo  Mo7  1  3.61561000  1.86421000  1.87343000  1
  Mo  Mo8  1  7.27398000  3.65244000  3.57717000  1
  Mo  Mo9  1  1.72368000  5.41065000  3.55329000  1
  Mo  Mo10  1  1.74179000  3.65932000  1.81345000  1
  Mo  Mo11  1  -0.01032660  5.50601000  1.76990000  1
  Mo  Mo12  1  3.63872000  3.54988000  3.74971000  1
  Mo  Mo13  1  5.37134000  5.42847000  3.53702000  1
  Mo  Mo14  1  5.66974000  3.54927000  1.72682000  1
  Mo  Mo15  1  3.76719000  5.42995000  1.76160000  1
