# generated using pymatgen
data_Mo
_symmetry_space_group_name_H-M   'P 1'
_cell_length_a   7.28810946
_cell_length_b   7.28810946
_cell_length_c   3.64405465
_cell_angle_alpha   90.00000000
_cell_angle_beta   90.00000000
_cell_angle_gamma   90.00000000
_symmetry_Int_Tables_number   1
_chemical_formula_structural   Mo
_chemical_formula_sum   Mo16
_cell_volume   193.55957265
_cell_formula_units_Z   16
loop_
 _symmetry_equiv_pos_site_id
 _symmetry_equiv_pos_as_xyz
  1  'x, y, z'
loop_
 _atom_site_type_symbol
 _atom_site_label
 _atom_site_symmetry_multiplicity
 _atom_site_fract_x
 _atom_site_fract_y
 _atom_site_fract_z
 _atom_site_occupancy
  Mo  Mo0  1  7.37998000  7.30689000  -0.09412280  1
  Mo  Mo1  1  1.93887000  1.80199000  -0.08569050  1
  Mo  Mo2  1  1.86463000  0.04887770  1.72220000  1
  Mo  Mo3  1  -0.00933182  1.86997000  1.86802000  1
  Mo  Mo4  1  3.66519000  7.25682000  -0.06397790  1
  Mo  Mo5  1  5.45307000  1.92164000  3.55571000  1
  Mo  Mo6  1  5.52833000  7.30725000  1.80001000  1
  Mo  Mo7  1  3.54549000  1.75538000  1.81590000  1
  Mo  Mo8  1  7.31509000  3.62375000  3.76645000  1
  Mo  Mo9  1  1.81561000  5.37745000  3.74422000  1
  Mo  Mo10  1  1.76872000  3.64490000  1.87773000  1
  Mo  Mo11  1  -0.11929600  5.40530000  1.78204000  1
  Mo  Mo12  1  3.60516000  3.55034000  3.74035000  1
  Mo  Mo13  1  5.39377000  5.52390000  3.64550000  1
  Mo  Mo14  1  5.40113000  3.71594000  1.81853000  1
  Mo  Mo15  1  3.67757000  5.40172000  1.86319000  1
