# generated using pymatgen
data_Mo
_symmetry_space_group_name_H-M   'P 1'
_cell_length_a   7.28810946
_cell_length_b   7.28810946
_cell_length_c   3.64405465
_cell_angle_alpha   90.00000000
_cell_angle_beta   90.00000000
_cell_angle_gamma   90.00000000
_symmetry_Int_Tables_number   1
_chemical_formula_structural   Mo
_chemical_formula_sum   Mo16
_cell_volume   193.55957265
_cell_formula_units_Z   16
loop_
 _symmetry_equiv_pos_site_id
 _symmetry_equiv_pos_as_xyz
  1  'x, y, z'
loop_
 _atom_site_type_symbol
 _atom_site_label
 _atom_site_symmetry_multiplicity
 _atom_site_fract_x
 _atom_site_fract_y
 _atom_site_fract_z
 _atom_site_occupancy
  Mo  Mo0  1  7.28035000  7.30387000  -0.10413400  1
  Mo  Mo1  1  1.83805000  1.74916000  -0.09018280  1
  Mo  Mo2  1  1.74366000  0.00810518  1.79242000  1
  Mo  Mo3  1  -0.15909600  1.79938000  1.78698000  1
  Mo  Mo4  1  3.59802000  7.24305000  -0.00121122  1
  Mo  Mo5  1  5.48557000  1.74979000  3.68114000  1
  Mo  Mo6  1  5.49662000  7.21281000  1.81177000  1
  Mo  Mo7  1  3.69179000  1.84529000  1.76226000  1
  Mo  Mo8  1  7.30875000  3.65670000  3.72716000  1
  Mo  Mo9  1  1.84875000  5.50573000  3.71756000  1
  Mo  Mo10  1  1.83224000  3.73013000  1.91979000  1
  Mo  Mo11  1  0.00702915  5.47378000  1.76798000  1
  Mo  Mo12  1  3.71701000  3.72574000  3.63217000  1
  Mo  Mo13  1  5.45502000  5.43516000  3.73466000  1
  Mo  Mo14  1  5.48693000  3.59001000  1.76664000  1
  Mo  Mo15  1  3.59329000  5.48342000  1.85105000  1
