# generated using pymatgen
data_Mo
_symmetry_space_group_name_H-M   'P 1'
_cell_length_a   7.28810946
_cell_length_b   7.28810946
_cell_length_c   3.64405465
_cell_angle_alpha   90.00000000
_cell_angle_beta   90.00000000
_cell_angle_gamma   90.00000000
_symmetry_Int_Tables_number   1
_chemical_formula_structural   Mo
_chemical_formula_sum   Mo16
_cell_volume   193.55957265
_cell_formula_units_Z   16
loop_
 _symmetry_equiv_pos_site_id
 _symmetry_equiv_pos_as_xyz
  1  'x, y, z'
loop_
 _atom_site_type_symbol
 _atom_site_label
 _atom_site_symmetry_multiplicity
 _atom_site_fract_x
 _atom_site_fract_y
 _atom_site_fract_z
 _atom_site_occupancy
  Mo  Mo0  1  7.32013000  7.12187000  0.02749990  1
  Mo  Mo1  1  1.78657000  1.88108000  -0.05584470  1
  Mo  Mo2  1  1.84816000  0.00003740  1.83258000  1
  Mo  Mo3  1  -0.01811970  1.78593000  1.80959000  1
  Mo  Mo4  1  3.59595000  7.25815000  -0.01233600  1
  Mo  Mo5  1  5.41806000  1.82578000  3.64408000  1
  Mo  Mo6  1  5.44739000  7.32676000  1.77799000  1
  Mo  Mo7  1  3.67645000  1.96024000  1.79889000  1
  Mo  Mo8  1  7.23611000  3.63733000  3.59427000  1
  Mo  Mo9  1  1.79610000  5.36629000  3.66519000  1
  Mo  Mo10  1  1.85340000  3.60447000  1.82164000  1
  Mo  Mo11  1  -0.04779330  5.45017000  1.86023000  1
  Mo  Mo12  1  3.80326000  3.61523000  3.65233000  1
  Mo  Mo13  1  5.42837000  5.42579000  3.68252000  1
  Mo  Mo14  1  5.49081000  3.77983000  1.80412000  1
  Mo  Mo15  1  3.58913000  5.47315000  1.85331000  1
