# generated using pymatgen
data_Mo
_symmetry_space_group_name_H-M   'P 1'
_cell_length_a   7.28810946
_cell_length_b   7.28810946
_cell_length_c   3.64405465
_cell_angle_alpha   90.00000000
_cell_angle_beta   90.00000000
_cell_angle_gamma   90.00000000
_symmetry_Int_Tables_number   1
_chemical_formula_structural   Mo
_chemical_formula_sum   Mo16
_cell_volume   193.55957265
_cell_formula_units_Z   16
loop_
 _symmetry_equiv_pos_site_id
 _symmetry_equiv_pos_as_xyz
  1  'x, y, z'
loop_
 _atom_site_type_symbol
 _atom_site_label
 _atom_site_symmetry_multiplicity
 _atom_site_fract_x
 _atom_site_fract_y
 _atom_site_fract_z
 _atom_site_occupancy
  Mo  Mo0  1  7.22741000  7.26783000  -0.13074500  1
  Mo  Mo1  1  1.92876000  1.82121000  -0.10696300  1
  Mo  Mo2  1  1.88503000  -0.15257000  1.82592000  1
  Mo  Mo3  1  0.07457420  1.93295000  1.76823000  1
  Mo  Mo4  1  3.62599000  7.26077000  -0.04475800  1
  Mo  Mo5  1  5.54914000  1.80029000  3.69949000  1
  Mo  Mo6  1  5.35479000  7.30234000  1.74173000  1
  Mo  Mo7  1  3.53450000  1.82283000  1.81128000  1
  Mo  Mo8  1  7.36380000  3.56360000  3.63576000  1
  Mo  Mo9  1  1.79059000  5.44401000  3.72092000  1
  Mo  Mo10  1  1.85757000  3.75692000  1.88974000  1
  Mo  Mo11  1  0.01989290  5.41643000  1.79567000  1
  Mo  Mo12  1  3.55445000  3.67301000  3.67081000  1
  Mo  Mo13  1  5.41348000  5.39388000  3.76788000  1
  Mo  Mo14  1  5.45463000  3.72733000  1.79345000  1
  Mo  Mo15  1  3.58938000  5.48128000  1.91763000  1
