# generated using pymatgen
data_Mo
_symmetry_space_group_name_H-M   'P 1'
_cell_length_a   7.27806742
_cell_length_b   7.27806742
_cell_length_c   3.63903379
_cell_angle_alpha   90.00000000
_cell_angle_beta   90.00000000
_cell_angle_gamma   90.00000000
_symmetry_Int_Tables_number   1
_chemical_formula_structural   Mo
_chemical_formula_sum   Mo16
_cell_volume   192.76058556
_cell_formula_units_Z   16
loop_
 _symmetry_equiv_pos_site_id
 _symmetry_equiv_pos_as_xyz
  1  'x, y, z'
loop_
 _atom_site_type_symbol
 _atom_site_label
 _atom_site_symmetry_multiplicity
 _atom_site_fract_x
 _atom_site_fract_y
 _atom_site_fract_z
 _atom_site_occupancy
  Mo  Mo0  1  -0.00221580  7.27689000  3.66779000  1
  Mo  Mo1  1  1.80866000  1.80825000  -0.01817440  1
  Mo  Mo2  1  1.82185000  7.28707000  1.83210000  1
  Mo  Mo3  1  7.28845000  1.83063000  1.81165000  1
  Mo  Mo4  1  3.66011000  7.27052000  -0.01847580  1
  Mo  Mo5  1  5.45580000  1.83042000  -0.03705810  1
  Mo  Mo6  1  5.48459000  -0.01431060  1.77313000  1
  Mo  Mo7  1  3.62782000  1.81765000  1.81454000  1
  Mo  Mo8  1  7.27196000  3.62839000  3.65930000  1
  Mo  Mo9  1  1.81835000  5.46088000  3.63207000  1
  Mo  Mo10  1  1.81294000  3.65010000  1.85116000  1
  Mo  Mo11  1  0.00948036  5.45993000  1.81726000  1
  Mo  Mo12  1  3.62465000  3.61577000  3.62623000  1
  Mo  Mo13  1  5.43971000  5.47018000  3.66027000  1
  Mo  Mo14  1  5.47229000  3.63537000  1.84329000  1
  Mo  Mo15  1  3.62954000  5.47431000  1.83595000  1
