# generated using pymatgen
data_Mo
_symmetry_space_group_name_H-M   'P 1'
_cell_length_a   7.28810946
_cell_length_b   7.28810946
_cell_length_c   3.64405465
_cell_angle_alpha   90.00000000
_cell_angle_beta   90.00000000
_cell_angle_gamma   90.00000000
_symmetry_Int_Tables_number   1
_chemical_formula_structural   Mo
_chemical_formula_sum   Mo16
_cell_volume   193.55957265
_cell_formula_units_Z   16
loop_
 _symmetry_equiv_pos_site_id
 _symmetry_equiv_pos_as_xyz
  1  'x, y, z'
loop_
 _atom_site_type_symbol
 _atom_site_label
 _atom_site_symmetry_multiplicity
 _atom_site_fract_x
 _atom_site_fract_y
 _atom_site_fract_z
 _atom_site_occupancy
  Mo  Mo0  1  7.33375000  7.25434000  0.01855060  1
  Mo  Mo1  1  1.80073000  1.86568000  -0.03471350  1
  Mo  Mo2  1  1.89301000  -0.11210000  1.82008000  1
  Mo  Mo3  1  0.09045070  1.83374000  1.80657000  1
  Mo  Mo4  1  3.59135000  7.17354000  -0.00966699  1
  Mo  Mo5  1  5.42827000  1.81907000  3.58199000  1
  Mo  Mo6  1  5.44905000  7.27163000  1.78545000  1
  Mo  Mo7  1  3.64047000  1.82960000  1.76168000  1
  Mo  Mo8  1  7.36794000  3.58293000  3.66771000  1
  Mo  Mo9  1  1.75265000  5.41479000  3.69827000  1
  Mo  Mo10  1  1.77534000  3.73174000  1.82718000  1
  Mo  Mo11  1  -0.02446520  5.47776000  1.92344000  1
  Mo  Mo12  1  3.62668000  3.61279000  3.61988000  1
  Mo  Mo13  1  5.39687000  5.48948000  3.65527000  1
  Mo  Mo14  1  5.56645000  3.77665000  1.79035000  1
  Mo  Mo15  1  3.53547000  5.49046000  1.84400000  1
