# generated using pymatgen
data_Mo
_symmetry_space_group_name_H-M   'P 1'
_cell_length_a   7.28810946
_cell_length_b   7.28810946
_cell_length_c   3.64405465
_cell_angle_alpha   90.00000000
_cell_angle_beta   90.00000000
_cell_angle_gamma   90.00000000
_symmetry_Int_Tables_number   1
_chemical_formula_structural   Mo
_chemical_formula_sum   Mo16
_cell_volume   193.55957265
_cell_formula_units_Z   16
loop_
 _symmetry_equiv_pos_site_id
 _symmetry_equiv_pos_as_xyz
  1  'x, y, z'
loop_
 _atom_site_type_symbol
 _atom_site_label
 _atom_site_symmetry_multiplicity
 _atom_site_fract_x
 _atom_site_fract_y
 _atom_site_fract_z
 _atom_site_occupancy
  Mo  Mo0  1  7.35690000  7.36191000  -0.02329030  1
  Mo  Mo1  1  1.68367000  1.88352000  0.04829580  1
  Mo  Mo2  1  1.85572000  -0.02058680  1.74987000  1
  Mo  Mo3  1  0.00371819  1.76710000  1.89596000  1
  Mo  Mo4  1  3.57194000  7.23112000  0.00356848  1
  Mo  Mo5  1  5.37149000  1.79130000  3.68249000  1
  Mo  Mo6  1  5.57946000  7.20279000  1.84353000  1
  Mo  Mo7  1  3.58120000  1.81102000  1.88156000  1
  Mo  Mo8  1  7.30123000  3.54895000  3.66484000  1
  Mo  Mo9  1  1.81667000  5.50459000  3.58474000  1
  Mo  Mo10  1  1.82074000  3.73137000  1.77007000  1
  Mo  Mo11  1  0.04945920  5.57452000  1.77017000  1
  Mo  Mo12  1  3.57443000  3.48694000  3.66374000  1
  Mo  Mo13  1  5.52418000  5.51539000  3.53517000  1
  Mo  Mo14  1  5.49867000  3.70155000  1.90492000  1
  Mo  Mo15  1  3.63455000  5.42064000  1.78043000  1
