# generated using pymatgen
data_Mo
_symmetry_space_group_name_H-M   'P 1'
_cell_length_a   7.28810946
_cell_length_b   7.28810946
_cell_length_c   3.64405465
_cell_angle_alpha   90.00000000
_cell_angle_beta   90.00000000
_cell_angle_gamma   90.00000000
_symmetry_Int_Tables_number   1
_chemical_formula_structural   Mo
_chemical_formula_sum   Mo16
_cell_volume   193.55957265
_cell_formula_units_Z   16
loop_
 _symmetry_equiv_pos_site_id
 _symmetry_equiv_pos_as_xyz
  1  'x, y, z'
loop_
 _atom_site_type_symbol
 _atom_site_label
 _atom_site_symmetry_multiplicity
 _atom_site_fract_x
 _atom_site_fract_y
 _atom_site_fract_z
 _atom_site_occupancy
  Mo  Mo0  1  7.28599000  7.31650000  0.06601790  1
  Mo  Mo1  1  1.73359000  1.94494000  -0.07963160  1
  Mo  Mo2  1  1.79156000  0.05001110  1.81075000  1
  Mo  Mo3  1  0.07705450  1.88222000  1.77954000  1
  Mo  Mo4  1  3.62297000  7.35838000  0.04571620  1
  Mo  Mo5  1  5.47332000  1.62658000  3.64506000  1
  Mo  Mo6  1  5.55052000  7.26421000  1.84866000  1
  Mo  Mo7  1  3.54742000  1.83792000  1.87529000  1
  Mo  Mo8  1  7.16413000  3.70054000  3.66506000  1
  Mo  Mo9  1  1.86016000  5.46569000  3.55436000  1
  Mo  Mo10  1  1.83015000  3.54239000  1.81141000  1
  Mo  Mo11  1  -0.09682780  5.37221000  1.78090000  1
  Mo  Mo12  1  3.80471000  3.62954000  3.66758000  1
  Mo  Mo13  1  5.46560000  5.43676000  3.64440000  1
  Mo  Mo14  1  5.49434000  3.55702000  1.74153000  1
  Mo  Mo15  1  3.61930000  5.52720000  1.89940000  1
