# generated using pymatgen
data_Mo
_symmetry_space_group_name_H-M   'P 1'
_cell_length_a   7.28810946
_cell_length_b   7.28810946
_cell_length_c   3.64405465
_cell_angle_alpha   90.00000000
_cell_angle_beta   90.00000000
_cell_angle_gamma   90.00000000
_symmetry_Int_Tables_number   1
_chemical_formula_structural   Mo
_chemical_formula_sum   Mo16
_cell_volume   193.55957265
_cell_formula_units_Z   16
loop_
 _symmetry_equiv_pos_site_id
 _symmetry_equiv_pos_as_xyz
  1  'x, y, z'
loop_
 _atom_site_type_symbol
 _atom_site_label
 _atom_site_symmetry_multiplicity
 _atom_site_fract_x
 _atom_site_fract_y
 _atom_site_fract_z
 _atom_site_occupancy
  Mo  Mo0  1  7.27329000  7.25627000  0.06005550  1
  Mo  Mo1  1  1.75490000  1.73719000  0.10368400  1
  Mo  Mo2  1  1.83020000  -0.03130870  1.86661000  1
  Mo  Mo3  1  0.04502830  1.84066000  1.85399000  1
  Mo  Mo4  1  3.62690000  7.29643000  -0.07995110  1
  Mo  Mo5  1  5.45656000  1.70770000  3.65502000  1
  Mo  Mo6  1  5.34139000  7.24911000  1.73635000  1
  Mo  Mo7  1  3.62345000  1.85768000  1.79837000  1
  Mo  Mo8  1  7.22659000  3.76466000  3.66116000  1
  Mo  Mo9  1  1.82681000  5.52587000  3.72589000  1
  Mo  Mo10  1  1.70652000  3.58119000  1.78601000  1
  Mo  Mo11  1  -0.02917060  5.57444000  1.79841000  1
  Mo  Mo12  1  3.71825000  3.63997000  3.63937000  1
  Mo  Mo13  1  5.47263000  5.49275000  3.50013000  1
  Mo  Mo14  1  5.57335000  3.63626000  1.88038000  1
  Mo  Mo15  1  3.77732000  5.38324000  1.77058000  1
