# generated using pymatgen
data_Mo
_symmetry_space_group_name_H-M   'P 1'
_cell_length_a   7.28810946
_cell_length_b   7.28810946
_cell_length_c   3.64405465
_cell_angle_alpha   90.00000000
_cell_angle_beta   90.00000000
_cell_angle_gamma   90.00000000
_symmetry_Int_Tables_number   1
_chemical_formula_structural   Mo
_chemical_formula_sum   Mo16
_cell_volume   193.55957265
_cell_formula_units_Z   16
loop_
 _symmetry_equiv_pos_site_id
 _symmetry_equiv_pos_as_xyz
  1  'x, y, z'
loop_
 _atom_site_type_symbol
 _atom_site_label
 _atom_site_symmetry_multiplicity
 _atom_site_fract_x
 _atom_site_fract_y
 _atom_site_fract_z
 _atom_site_occupancy
  Mo  Mo0  1  7.37157000  7.27961000  0.03908430  1
  Mo  Mo1  1  1.86353000  1.90505000  -0.08385340  1
  Mo  Mo2  1  1.81708000  -0.06898730  1.71805000  1
  Mo  Mo3  1  -0.03500670  1.70064000  1.85446000  1
  Mo  Mo4  1  3.58038000  7.29264000  0.00876005  1
  Mo  Mo5  1  5.49271000  1.82867000  3.58643000  1
  Mo  Mo6  1  5.42608000  7.24959000  1.80366000  1
  Mo  Mo7  1  3.63613000  1.81319000  1.74616000  1
  Mo  Mo8  1  7.27756000  3.56558000  3.66129000  1
  Mo  Mo9  1  1.84525000  5.43871000  3.66706000  1
  Mo  Mo10  1  1.76406000  3.77492000  1.84699000  1
  Mo  Mo11  1  0.09913190  5.48202000  1.89046000  1
  Mo  Mo12  1  3.59148000  3.66528000  3.72335000  1
  Mo  Mo13  1  5.39944000  5.56051000  3.68296000  1
  Mo  Mo14  1  5.48359000  3.55499000  1.77692000  1
  Mo  Mo15  1  3.61103000  5.46971000  1.83428000  1
