# generated using pymatgen
data_Mo
_symmetry_space_group_name_H-M   'P 1'
_cell_length_a   7.28810946
_cell_length_b   7.28810946
_cell_length_c   3.64405465
_cell_angle_alpha   90.00000000
_cell_angle_beta   90.00000000
_cell_angle_gamma   90.00000000
_symmetry_Int_Tables_number   1
_chemical_formula_structural   Mo
_chemical_formula_sum   Mo16
_cell_volume   193.55957265
_cell_formula_units_Z   16
loop_
 _symmetry_equiv_pos_site_id
 _symmetry_equiv_pos_as_xyz
  1  'x, y, z'
loop_
 _atom_site_type_symbol
 _atom_site_label
 _atom_site_symmetry_multiplicity
 _atom_site_fract_x
 _atom_site_fract_y
 _atom_site_fract_z
 _atom_site_occupancy
  Mo  Mo0  1  7.32175000  7.32074000  -0.01414530  1
  Mo  Mo1  1  1.74522000  1.76400000  0.04016560  1
  Mo  Mo2  1  1.84474000  -0.01451230  1.87488000  1
  Mo  Mo3  1  0.11988500  1.85569000  1.77159000  1
  Mo  Mo4  1  3.59514000  7.38172000  -0.04850750  1
  Mo  Mo5  1  5.48633000  1.74711000  3.71712000  1
  Mo  Mo6  1  5.41379000  7.31667000  1.83750000  1
  Mo  Mo7  1  3.52455000  1.91861000  1.89256000  1
  Mo  Mo8  1  7.31526000  3.67346000  3.64462000  1
  Mo  Mo9  1  1.80322000  5.45197000  3.63615000  1
  Mo  Mo10  1  1.72175000  3.55772000  1.88074000  1
  Mo  Mo11  1  -0.10899300  5.49044000  1.73187000  1
  Mo  Mo12  1  3.71035000  3.61421000  3.53625000  1
  Mo  Mo13  1  5.61169000  5.42584000  3.61986000  1
  Mo  Mo14  1  5.50026000  3.68032000  1.80766000  1
  Mo  Mo15  1  3.61905000  5.32813000  1.82775000  1
