# generated using pymatgen
data_Mo
_symmetry_space_group_name_H-M   'P 1'
_cell_length_a   7.28810946
_cell_length_b   7.28810946
_cell_length_c   3.64405465
_cell_angle_alpha   90.00000000
_cell_angle_beta   90.00000000
_cell_angle_gamma   90.00000000
_symmetry_Int_Tables_number   1
_chemical_formula_structural   Mo
_chemical_formula_sum   Mo16
_cell_volume   193.55957265
_cell_formula_units_Z   16
loop_
 _symmetry_equiv_pos_site_id
 _symmetry_equiv_pos_as_xyz
  1  'x, y, z'
loop_
 _atom_site_type_symbol
 _atom_site_label
 _atom_site_symmetry_multiplicity
 _atom_site_fract_x
 _atom_site_fract_y
 _atom_site_fract_z
 _atom_site_occupancy
  Mo  Mo0  1  7.41303000  7.25860000  -0.09651950  1
  Mo  Mo1  1  1.86805000  1.92963000  0.03685690  1
  Mo  Mo2  1  1.72895000  -0.12750700  1.76469000  1
  Mo  Mo3  1  -0.09963260  1.81389000  1.84012000  1
  Mo  Mo4  1  3.55201000  7.25494000  -0.03475050  1
  Mo  Mo5  1  5.50332000  1.78847000  3.63328000  1
  Mo  Mo6  1  5.45659000  7.29235000  1.83830000  1
  Mo  Mo7  1  3.77029000  1.74099000  1.78072000  1
  Mo  Mo8  1  7.24626000  3.62113000  3.63616000  1
  Mo  Mo9  1  1.79302000  5.31616000  3.74057000  1
  Mo  Mo10  1  1.84794000  3.67322000  1.89735000  1
  Mo  Mo11  1  -0.04832980  5.47043000  1.84937000  1
  Mo  Mo12  1  3.75382000  3.62657000  3.60803000  1
  Mo  Mo13  1  5.45295000  5.61030000  3.67620000  1
  Mo  Mo14  1  5.31155000  3.70379000  1.83038000  1
  Mo  Mo15  1  3.67416000  5.53917000  1.75530000  1
