# generated using pymatgen
data_Mo
_symmetry_space_group_name_H-M   'P 1'
_cell_length_a   7.28810946
_cell_length_b   7.28810946
_cell_length_c   3.64405465
_cell_angle_alpha   90.00000000
_cell_angle_beta   90.00000000
_cell_angle_gamma   90.00000000
_symmetry_Int_Tables_number   1
_chemical_formula_structural   Mo
_chemical_formula_sum   Mo16
_cell_volume   193.55957265
_cell_formula_units_Z   16
loop_
 _symmetry_equiv_pos_site_id
 _symmetry_equiv_pos_as_xyz
  1  'x, y, z'
loop_
 _atom_site_type_symbol
 _atom_site_label
 _atom_site_symmetry_multiplicity
 _atom_site_fract_x
 _atom_site_fract_y
 _atom_site_fract_z
 _atom_site_occupancy
  Mo  Mo0  1  7.26119000  7.29122000  0.04444150  1
  Mo  Mo1  1  1.86920000  1.82123000  0.01590970  1
  Mo  Mo2  1  1.77914000  -0.02627410  1.73591000  1
  Mo  Mo3  1  0.11362400  1.76809000  1.78074000  1
  Mo  Mo4  1  3.67827000  7.23155000  0.04863660  1
  Mo  Mo5  1  5.38134000  1.86231000  3.61618000  1
  Mo  Mo6  1  5.46269000  7.35717000  1.84618000  1
  Mo  Mo7  1  3.66163000  1.83294000  1.85611000  1
  Mo  Mo8  1  7.34624000  3.67161000  3.64060000  1
  Mo  Mo9  1  1.80254000  5.39791000  3.62954000  1
  Mo  Mo10  1  1.85586000  3.62597000  1.82669000  1
  Mo  Mo11  1  -0.05858590  5.35542000  1.78749000  1
  Mo  Mo12  1  3.66920000  3.75581000  3.73403000  1
  Mo  Mo13  1  5.42319000  5.50648000  3.53037000  1
  Mo  Mo14  1  5.42962000  3.57966000  1.82637000  1
  Mo  Mo15  1  3.54885000  5.48100000  1.83685000  1
