# generated using pymatgen
data_Mo
_symmetry_space_group_name_H-M   'P 1'
_cell_length_a   7.27806742
_cell_length_b   7.27806742
_cell_length_c   3.63903379
_cell_angle_alpha   90.00000000
_cell_angle_beta   90.00000000
_cell_angle_gamma   90.00000000
_symmetry_Int_Tables_number   1
_chemical_formula_structural   Mo
_chemical_formula_sum   Mo16
_cell_volume   192.76058556
_cell_formula_units_Z   16
loop_
 _symmetry_equiv_pos_site_id
 _symmetry_equiv_pos_as_xyz
  1  'x, y, z'
loop_
 _atom_site_type_symbol
 _atom_site_label
 _atom_site_symmetry_multiplicity
 _atom_site_fract_x
 _atom_site_fract_y
 _atom_site_fract_z
 _atom_site_occupancy
  Mo  Mo0  1  -0.01358970  7.28933000  3.62953000  1
  Mo  Mo1  1  1.82632000  1.82327000  0.02334560  1
  Mo  Mo2  1  1.80318000  7.25871000  1.81306000  1
  Mo  Mo3  1  7.29247000  1.82274000  1.81996000  1
  Mo  Mo4  1  3.62441000  7.30487000  -0.01406910  1
  Mo  Mo5  1  5.45492000  1.79820000  0.02290500  1
  Mo  Mo6  1  5.44818000  0.00138104  1.84775000  1
  Mo  Mo7  1  3.62816000  1.81582000  1.81746000  1
  Mo  Mo8  1  7.28007000  3.63281000  3.62745000  1
  Mo  Mo9  1  1.83186000  5.46700000  3.64509000  1
  Mo  Mo10  1  1.81182000  3.62995000  1.78225000  1
  Mo  Mo11  1  0.00391122  5.46034000  1.82310000  1
  Mo  Mo12  1  3.66157000  3.63789000  3.65980000  1
  Mo  Mo13  1  5.47523000  5.45672000  3.62083000  1
  Mo  Mo14  1  5.46595000  3.65294000  1.81596000  1
  Mo  Mo15  1  3.62954000  5.45009000  1.81663000  1
