# generated using pymatgen
data_Mo
_symmetry_space_group_name_H-M   'P 1'
_cell_length_a   7.28810946
_cell_length_b   7.28810946
_cell_length_c   3.64405465
_cell_angle_alpha   90.00000000
_cell_angle_beta   90.00000000
_cell_angle_gamma   90.00000000
_symmetry_Int_Tables_number   1
_chemical_formula_structural   Mo
_chemical_formula_sum   Mo16
_cell_volume   193.55957265
_cell_formula_units_Z   16
loop_
 _symmetry_equiv_pos_site_id
 _symmetry_equiv_pos_as_xyz
  1  'x, y, z'
loop_
 _atom_site_type_symbol
 _atom_site_label
 _atom_site_symmetry_multiplicity
 _atom_site_fract_x
 _atom_site_fract_y
 _atom_site_fract_z
 _atom_site_occupancy
  Mo  Mo0  1  7.27290000  7.31751000  0.04425690  1
  Mo  Mo1  1  1.81743000  1.78609000  -0.03876710  1
  Mo  Mo2  1  1.77918000  0.03509010  1.88056000  1
  Mo  Mo3  1  -0.13566600  1.93552000  1.89896000  1
  Mo  Mo4  1  3.60691000  7.30306000  -0.07819780  1
  Mo  Mo5  1  5.49425000  1.81373000  3.69134000  1
  Mo  Mo6  1  5.52045000  7.38069000  1.83100000  1
  Mo  Mo7  1  3.66617000  1.73642000  1.77551000  1
  Mo  Mo8  1  7.26765000  3.51053000  3.59344000  1
  Mo  Mo9  1  1.76981000  5.51552000  3.72598000  1
  Mo  Mo10  1  1.80430000  3.66948000  1.83989000  1
  Mo  Mo11  1  -0.06590230  5.47111000  1.83607000  1
  Mo  Mo12  1  3.58363000  3.56324000  3.55139000  1
  Mo  Mo13  1  5.49408000  5.41195000  3.69589000  1
  Mo  Mo14  1  5.49618000  3.56314000  1.75061000  1
  Mo  Mo15  1  3.85264000  5.49903000  1.75812000  1
