# generated using pymatgen
data_Mo
_symmetry_space_group_name_H-M   'P 1'
_cell_length_a   7.28810946
_cell_length_b   7.28810946
_cell_length_c   3.64405465
_cell_angle_alpha   90.00000000
_cell_angle_beta   90.00000000
_cell_angle_gamma   90.00000000
_symmetry_Int_Tables_number   1
_chemical_formula_structural   Mo
_chemical_formula_sum   Mo16
_cell_volume   193.55957265
_cell_formula_units_Z   16
loop_
 _symmetry_equiv_pos_site_id
 _symmetry_equiv_pos_as_xyz
  1  'x, y, z'
loop_
 _atom_site_type_symbol
 _atom_site_label
 _atom_site_symmetry_multiplicity
 _atom_site_fract_x
 _atom_site_fract_y
 _atom_site_fract_z
 _atom_site_occupancy
  Mo  Mo0  1  7.07698000  7.11883000  -0.04658990  1
  Mo  Mo1  1  1.80863000  1.81608000  0.06622700  1
  Mo  Mo2  1  1.82217000  -0.02042920  1.84358000  1
  Mo  Mo3  1  -0.00271500  1.86624000  1.84424000  1
  Mo  Mo4  1  3.78327000  7.32032000  0.03981210  1
  Mo  Mo5  1  5.48327000  1.93523000  3.64953000  1
  Mo  Mo6  1  5.46485000  7.16183000  1.88289000  1
  Mo  Mo7  1  3.60844000  1.73116000  1.82692000  1
  Mo  Mo8  1  7.23416000  3.76651000  3.52181000  1
  Mo  Mo9  1  1.89041000  5.50558000  3.63740000  1
  Mo  Mo10  1  1.82681000  3.79338000  1.79473000  1
  Mo  Mo11  1  0.12547500  5.38389000  1.74011000  1
  Mo  Mo12  1  3.66677000  3.67540000  3.61759000  1
  Mo  Mo13  1  5.28727000  5.43838000  3.67225000  1
  Mo  Mo14  1  5.51505000  3.51437000  1.86271000  1
  Mo  Mo15  1  3.63316000  5.50535000  1.80285000  1
