# generated using pymatgen
data_Mo
_symmetry_space_group_name_H-M   'P 1'
_cell_length_a   7.28810946
_cell_length_b   7.28810946
_cell_length_c   3.64405465
_cell_angle_alpha   90.00000000
_cell_angle_beta   90.00000000
_cell_angle_gamma   90.00000000
_symmetry_Int_Tables_number   1
_chemical_formula_structural   Mo
_chemical_formula_sum   Mo16
_cell_volume   193.55957265
_cell_formula_units_Z   16
loop_
 _symmetry_equiv_pos_site_id
 _symmetry_equiv_pos_as_xyz
  1  'x, y, z'
loop_
 _atom_site_type_symbol
 _atom_site_label
 _atom_site_symmetry_multiplicity
 _atom_site_fract_x
 _atom_site_fract_y
 _atom_site_fract_z
 _atom_site_occupancy
  Mo  Mo0  1  7.30523000  7.20971000  0.09054490  1
  Mo  Mo1  1  1.85977000  1.80411000  -0.02628240  1
  Mo  Mo2  1  1.86062000  -0.02153680  1.84390000  1
  Mo  Mo3  1  0.00439545  1.93527000  1.83589000  1
  Mo  Mo4  1  3.60610000  7.22376000  -0.01062570  1
  Mo  Mo5  1  5.40043000  1.66475000  3.61680000  1
  Mo  Mo6  1  5.51484000  7.27894000  1.80528000  1
  Mo  Mo7  1  3.62392000  1.74685000  1.81628000  1
  Mo  Mo8  1  7.08184000  3.71185000  3.68666000  1
  Mo  Mo9  1  1.86022000  5.34267000  3.59356000  1
  Mo  Mo10  1  1.90241000  3.68907000  1.82450000  1
  Mo  Mo11  1  0.06118140  5.34531000  1.82065000  1
  Mo  Mo12  1  3.68807000  3.73928000  3.67424000  1
  Mo  Mo13  1  5.43135000  5.63897000  3.56821000  1
  Mo  Mo14  1  5.44233000  3.66500000  1.76004000  1
  Mo  Mo15  1  3.58129000  5.53811000  1.85640000  1
