# generated using pymatgen
data_Mo
_symmetry_space_group_name_H-M   'P 1'
_cell_length_a   7.28810946
_cell_length_b   7.28810946
_cell_length_c   3.64405465
_cell_angle_alpha   90.00000000
_cell_angle_beta   90.00000000
_cell_angle_gamma   90.00000000
_symmetry_Int_Tables_number   1
_chemical_formula_structural   Mo
_chemical_formula_sum   Mo16
_cell_volume   193.55957265
_cell_formula_units_Z   16
loop_
 _symmetry_equiv_pos_site_id
 _symmetry_equiv_pos_as_xyz
  1  'x, y, z'
loop_
 _atom_site_type_symbol
 _atom_site_label
 _atom_site_symmetry_multiplicity
 _atom_site_fract_x
 _atom_site_fract_y
 _atom_site_fract_z
 _atom_site_occupancy
  Mo  Mo0  1  7.21120000  7.28085000  0.05168380  1
  Mo  Mo1  1  1.79639000  1.74448000  0.10783700  1
  Mo  Mo2  1  1.80235000  -0.11490300  1.79870000  1
  Mo  Mo3  1  0.02263840  1.77321000  1.74186000  1
  Mo  Mo4  1  3.61099000  7.29937000  0.09723760  1
  Mo  Mo5  1  5.48640000  1.74862000  3.57138000  1
  Mo  Mo6  1  5.39846000  7.31678000  1.93322000  1
  Mo  Mo7  1  3.63464000  1.87438000  1.84188000  1
  Mo  Mo8  1  7.23935000  3.69579000  3.56191000  1
  Mo  Mo9  1  1.82450000  5.53338000  3.64517000  1
  Mo  Mo10  1  1.83427000  3.65279000  1.83809000  1
  Mo  Mo11  1  0.01104340  5.57505000  1.83798000  1
  Mo  Mo12  1  3.64467000  3.70136000  3.51427000  1
  Mo  Mo13  1  5.52007000  5.45341000  3.63830000  1
  Mo  Mo14  1  5.51616000  3.54220000  1.73582000  1
  Mo  Mo15  1  3.67087000  5.43534000  1.84072000  1
