# generated using pymatgen
data_Mo
_symmetry_space_group_name_H-M   'P 1'
_cell_length_a   7.28810946
_cell_length_b   7.28810946
_cell_length_c   3.64405465
_cell_angle_alpha   90.00000000
_cell_angle_beta   90.00000000
_cell_angle_gamma   90.00000000
_symmetry_Int_Tables_number   1
_chemical_formula_structural   Mo
_chemical_formula_sum   Mo16
_cell_volume   193.55957265
_cell_formula_units_Z   16
loop_
 _symmetry_equiv_pos_site_id
 _symmetry_equiv_pos_as_xyz
  1  'x, y, z'
loop_
 _atom_site_type_symbol
 _atom_site_label
 _atom_site_symmetry_multiplicity
 _atom_site_fract_x
 _atom_site_fract_y
 _atom_site_fract_z
 _atom_site_occupancy
  Mo  Mo0  1  7.47822000  7.27821000  -0.03809830  1
  Mo  Mo1  1  1.85097000  1.97605000  0.07399080  1
  Mo  Mo2  1  1.87573000  -0.12803700  1.87397000  1
  Mo  Mo3  1  -0.08009740  1.84246000  1.84947000  1
  Mo  Mo4  1  3.55696000  7.21698000  -0.02157680  1
  Mo  Mo5  1  5.38340000  1.72617000  3.63008000  1
  Mo  Mo6  1  5.44936000  7.17595000  1.81850000  1
  Mo  Mo7  1  3.59427000  1.68380000  1.80585000  1
  Mo  Mo8  1  7.26650000  3.66542000  3.54495000  1
  Mo  Mo9  1  1.86714000  5.42232000  3.73191000  1
  Mo  Mo10  1  1.81205000  3.66304000  1.79015000  1
  Mo  Mo11  1  0.00226279  5.40468000  1.80004000  1
  Mo  Mo12  1  3.68063000  3.68908000  3.60896000  1
  Mo  Mo13  1  5.51123000  5.52740000  3.67129000  1
  Mo  Mo14  1  5.30408000  3.74470000  1.84954000  1
  Mo  Mo15  1  3.67129000  5.62388000  1.76702000  1
