# generated using pymatgen
data_Mo
_symmetry_space_group_name_H-M   'P 1'
_cell_length_a   7.28810946
_cell_length_b   7.28810946
_cell_length_c   3.64405465
_cell_angle_alpha   90.00000000
_cell_angle_beta   90.00000000
_cell_angle_gamma   90.00000000
_symmetry_Int_Tables_number   1
_chemical_formula_structural   Mo
_chemical_formula_sum   Mo16
_cell_volume   193.55957265
_cell_formula_units_Z   16
loop_
 _symmetry_equiv_pos_site_id
 _symmetry_equiv_pos_as_xyz
  1  'x, y, z'
loop_
 _atom_site_type_symbol
 _atom_site_label
 _atom_site_symmetry_multiplicity
 _atom_site_fract_x
 _atom_site_fract_y
 _atom_site_fract_z
 _atom_site_occupancy
  Mo  Mo0  1  7.35845000  7.32039000  -0.06305610  1
  Mo  Mo1  1  1.90394000  1.97602000  0.03189970  1
  Mo  Mo2  1  1.72099000  -0.10063300  1.78203000  1
  Mo  Mo3  1  -0.02405140  1.80070000  1.81709000  1
  Mo  Mo4  1  3.51446000  7.23423000  0.00272316  1
  Mo  Mo5  1  5.41908000  1.77656000  3.64824000  1
  Mo  Mo6  1  5.51395000  7.21022000  1.91876000  1
  Mo  Mo7  1  3.61721000  1.76852000  1.83269000  1
  Mo  Mo8  1  7.32157000  3.63620000  3.53474000  1
  Mo  Mo9  1  1.76642000  5.48163000  3.73130000  1
  Mo  Mo10  1  1.94635000  3.60779000  1.79131000  1
  Mo  Mo11  1  0.05152420  5.44908000  1.79190000  1
  Mo  Mo12  1  3.74238000  3.66543000  3.59438000  1
  Mo  Mo13  1  5.52156000  5.43499000  3.69737000  1
  Mo  Mo14  1  5.32845000  3.71146000  1.83061000  1
  Mo  Mo15  1  3.52174000  5.53953000  1.81407000  1
