# generated using pymatgen
data_Mo
_symmetry_space_group_name_H-M   'P 1'
_cell_length_a   7.28810946
_cell_length_b   7.28810946
_cell_length_c   3.64405465
_cell_angle_alpha   90.00000000
_cell_angle_beta   90.00000000
_cell_angle_gamma   90.00000000
_symmetry_Int_Tables_number   1
_chemical_formula_structural   Mo
_chemical_formula_sum   Mo16
_cell_volume   193.55957265
_cell_formula_units_Z   16
loop_
 _symmetry_equiv_pos_site_id
 _symmetry_equiv_pos_as_xyz
  1  'x, y, z'
loop_
 _atom_site_type_symbol
 _atom_site_label
 _atom_site_symmetry_multiplicity
 _atom_site_fract_x
 _atom_site_fract_y
 _atom_site_fract_z
 _atom_site_occupancy
  Mo  Mo0  1  7.20917000  7.39031000  0.08959650  1
  Mo  Mo1  1  1.76112000  1.80961000  0.07298400  1
  Mo  Mo2  1  1.74183000  0.05528630  1.85210000  1
  Mo  Mo3  1  0.05319710  1.77479000  1.90581000  1
  Mo  Mo4  1  3.75747000  7.32718000  0.06661340  1
  Mo  Mo5  1  5.36947000  1.83695000  3.63537000  1
  Mo  Mo6  1  5.51466000  7.33006000  1.82663000  1
  Mo  Mo7  1  3.56074000  1.82904000  1.80063000  1
  Mo  Mo8  1  7.18822000  3.64917000  3.68120000  1
  Mo  Mo9  1  1.84768000  5.52143000  3.56553000  1
  Mo  Mo10  1  1.83507000  3.59623000  1.76219000  1
  Mo  Mo11  1  -0.08017390  5.41074000  1.81298000  1
  Mo  Mo12  1  3.80164000  3.62280000  3.59383000  1
  Mo  Mo13  1  5.56218000  5.41825000  3.47871000  1
  Mo  Mo14  1  5.41195000  3.47303000  1.83463000  1
  Mo  Mo15  1  3.68977000  5.46723000  1.77723000  1
