# generated using pymatgen
data_Mo
_symmetry_space_group_name_H-M   'P 1'
_cell_length_a   7.28810946
_cell_length_b   7.28810946
_cell_length_c   3.64405465
_cell_angle_alpha   90.00000000
_cell_angle_beta   90.00000000
_cell_angle_gamma   90.00000000
_symmetry_Int_Tables_number   1
_chemical_formula_structural   Mo
_chemical_formula_sum   Mo16
_cell_volume   193.55957265
_cell_formula_units_Z   16
loop_
 _symmetry_equiv_pos_site_id
 _symmetry_equiv_pos_as_xyz
  1  'x, y, z'
loop_
 _atom_site_type_symbol
 _atom_site_label
 _atom_site_symmetry_multiplicity
 _atom_site_fract_x
 _atom_site_fract_y
 _atom_site_fract_z
 _atom_site_occupancy
  Mo  Mo0  1  7.30250000  7.41135000  -0.02558480  1
  Mo  Mo1  1  1.83235000  1.84624000  0.04337950  1
  Mo  Mo2  1  1.90626000  -0.02385420  1.77955000  1
  Mo  Mo3  1  -0.10538600  1.85087000  1.85049000  1
  Mo  Mo4  1  3.61951000  7.45276000  -0.00377702  1
  Mo  Mo5  1  5.45008000  1.77408000  3.69017000  1
  Mo  Mo6  1  5.39694000  7.18611000  1.87847000  1
  Mo  Mo7  1  3.71016000  1.82521000  1.85004000  1
  Mo  Mo8  1  7.16486000  3.58284000  3.66961000  1
  Mo  Mo9  1  1.89615000  5.41954000  3.67761000  1
  Mo  Mo10  1  1.78504000  3.71435000  1.74590000  1
  Mo  Mo11  1  -0.01051820  5.51069000  1.75210000  1
  Mo  Mo12  1  3.62963000  3.52787000  3.64460000  1
  Mo  Mo13  1  5.38043000  5.54499000  3.52698000  1
  Mo  Mo14  1  5.50463000  3.50635000  1.86661000  1
  Mo  Mo15  1  3.76136000  5.38273000  1.80992000  1
