# generated using pymatgen
data_Mo
_symmetry_space_group_name_H-M   'P 1'
_cell_length_a   7.28810946
_cell_length_b   7.28810946
_cell_length_c   3.64405465
_cell_angle_alpha   90.00000000
_cell_angle_beta   90.00000000
_cell_angle_gamma   90.00000000
_symmetry_Int_Tables_number   1
_chemical_formula_structural   Mo
_chemical_formula_sum   Mo16
_cell_volume   193.55957265
_cell_formula_units_Z   16
loop_
 _symmetry_equiv_pos_site_id
 _symmetry_equiv_pos_as_xyz
  1  'x, y, z'
loop_
 _atom_site_type_symbol
 _atom_site_label
 _atom_site_symmetry_multiplicity
 _atom_site_fract_x
 _atom_site_fract_y
 _atom_site_fract_z
 _atom_site_occupancy
  Mo  Mo0  1  7.32357000  7.25463000  0.07123350  1
  Mo  Mo1  1  1.80862000  1.86656000  -0.02617410  1
  Mo  Mo2  1  1.94817000  0.09886280  1.90515000  1
  Mo  Mo3  1  0.02960640  1.73110000  1.81789000  1
  Mo  Mo4  1  3.67173000  7.22911000  -0.01497190  1
  Mo  Mo5  1  5.48183000  1.73395000  3.61711000  1
  Mo  Mo6  1  5.37257000  7.47472000  1.76322000  1
  Mo  Mo7  1  3.64268000  1.77524000  1.77272000  1
  Mo  Mo8  1  7.20560000  3.72503000  3.61035000  1
  Mo  Mo9  1  1.83269000  5.47468000  3.61809000  1
  Mo  Mo10  1  1.73540000  3.53029000  1.88058000  1
  Mo  Mo11  1  -0.05531700  5.51723000  1.87068000  1
  Mo  Mo12  1  3.76535000  3.59179000  3.64035000  1
  Mo  Mo13  1  5.45832000  5.43127000  3.67249000  1
  Mo  Mo14  1  5.44862000  3.61433000  1.75836000  1
  Mo  Mo15  1  3.55456000  5.46331000  1.79898000  1
