# generated using pymatgen
data_Mo
_symmetry_space_group_name_H-M   'P 1'
_cell_length_a   7.28810946
_cell_length_b   7.28810946
_cell_length_c   3.64405465
_cell_angle_alpha   90.00000000
_cell_angle_beta   90.00000000
_cell_angle_gamma   90.00000000
_symmetry_Int_Tables_number   1
_chemical_formula_structural   Mo
_chemical_formula_sum   Mo16
_cell_volume   193.55957265
_cell_formula_units_Z   16
loop_
 _symmetry_equiv_pos_site_id
 _symmetry_equiv_pos_as_xyz
  1  'x, y, z'
loop_
 _atom_site_type_symbol
 _atom_site_label
 _atom_site_symmetry_multiplicity
 _atom_site_fract_x
 _atom_site_fract_y
 _atom_site_fract_z
 _atom_site_occupancy
  Mo  Mo0  1  7.35595000  7.35026000  0.06331350  1
  Mo  Mo1  1  1.86845000  1.85863000  -0.08567590  1
  Mo  Mo2  1  1.82082000  -0.08014710  1.80727000  1
  Mo  Mo3  1  -0.09570170  1.83869000  1.83828000  1
  Mo  Mo4  1  3.68948000  7.27218000  0.04669860  1
  Mo  Mo5  1  5.44875000  1.87362000  3.65078000  1
  Mo  Mo6  1  5.34460000  7.18599000  1.80343000  1
  Mo  Mo7  1  3.68937000  1.74871000  1.82707000  1
  Mo  Mo8  1  7.27081000  3.57541000  3.61415000  1
  Mo  Mo9  1  1.90206000  5.42158000  3.57067000  1
  Mo  Mo10  1  1.78023000  3.74248000  1.83407000  1
  Mo  Mo11  1  -0.04187910  5.45198000  1.85446000  1
  Mo  Mo12  1  3.61412000  3.61584000  3.66175000  1
  Mo  Mo13  1  5.49953000  5.61544000  3.66672000  1
  Mo  Mo14  1  5.43298000  3.60698000  1.71478000  1
  Mo  Mo15  1  3.64443000  5.43446000  1.88830000  1
