# generated using pymatgen
data_Mo
_symmetry_space_group_name_H-M   'P 1'
_cell_length_a   7.28810946
_cell_length_b   7.28810946
_cell_length_c   3.64405465
_cell_angle_alpha   90.00000000
_cell_angle_beta   90.00000000
_cell_angle_gamma   90.00000000
_symmetry_Int_Tables_number   1
_chemical_formula_structural   Mo
_chemical_formula_sum   Mo16
_cell_volume   193.55957265
_cell_formula_units_Z   16
loop_
 _symmetry_equiv_pos_site_id
 _symmetry_equiv_pos_as_xyz
  1  'x, y, z'
loop_
 _atom_site_type_symbol
 _atom_site_label
 _atom_site_symmetry_multiplicity
 _atom_site_fract_x
 _atom_site_fract_y
 _atom_site_fract_z
 _atom_site_occupancy
  Mo  Mo0  1  7.19048000  7.33018000  0.00178326  1
  Mo  Mo1  1  1.81965000  1.84916000  0.01936190  1
  Mo  Mo2  1  1.88276000  0.01856000  1.80327000  1
  Mo  Mo3  1  -0.06434110  1.75264000  1.82965000  1
  Mo  Mo4  1  3.63552000  7.27654000  0.01237070  1
  Mo  Mo5  1  5.41433000  1.85107000  3.51484000  1
  Mo  Mo6  1  5.50926000  7.31167000  1.80010000  1
  Mo  Mo7  1  3.84003000  1.81860000  1.77807000  1
  Mo  Mo8  1  7.33013000  3.50235000  3.70966000  1
  Mo  Mo9  1  1.76153000  5.45628000  3.70756000  1
  Mo  Mo10  1  1.82617000  3.64138000  1.81431000  1
  Mo  Mo11  1  -0.16202500  5.40116000  1.85100000  1
  Mo  Mo12  1  3.60596000  3.61437000  3.63284000  1
  Mo  Mo13  1  5.41745000  5.55639000  3.53187000  1
  Mo  Mo14  1  5.56817000  3.63330000  1.89901000  1
  Mo  Mo15  1  3.64893000  5.49845000  1.85036000  1
