# generated using pymatgen
data_Mo
_symmetry_space_group_name_H-M   'P 1'
_cell_length_a   7.28810946
_cell_length_b   7.28810946
_cell_length_c   3.64405465
_cell_angle_alpha   90.00000000
_cell_angle_beta   90.00000000
_cell_angle_gamma   90.00000000
_symmetry_Int_Tables_number   1
_chemical_formula_structural   Mo
_chemical_formula_sum   Mo16
_cell_volume   193.55957265
_cell_formula_units_Z   16
loop_
 _symmetry_equiv_pos_site_id
 _symmetry_equiv_pos_as_xyz
  1  'x, y, z'
loop_
 _atom_site_type_symbol
 _atom_site_label
 _atom_site_symmetry_multiplicity
 _atom_site_fract_x
 _atom_site_fract_y
 _atom_site_fract_z
 _atom_site_occupancy
  Mo  Mo0  1  7.19201000  7.22875000  0.04864940  1
  Mo  Mo1  1  1.76760000  1.93416000  0.05568020  1
  Mo  Mo2  1  1.82915000  0.05053150  1.77306000  1
  Mo  Mo3  1  0.02512020  1.76546000  1.78377000  1
  Mo  Mo4  1  3.73306000  7.22894000  0.10460600  1
  Mo  Mo5  1  5.47958000  1.75216000  3.54942000  1
  Mo  Mo6  1  5.42975000  7.16829000  1.92042000  1
  Mo  Mo7  1  3.74915000  1.77029000  1.83058000  1
  Mo  Mo8  1  7.25738000  3.58968000  3.59323000  1
  Mo  Mo9  1  1.81688000  5.55927000  3.62382000  1
  Mo  Mo10  1  1.85894000  3.68530000  1.76035000  1
  Mo  Mo11  1  0.03825930  5.49653000  1.89455000  1
  Mo  Mo12  1  3.61288000  3.64607000  3.58613000  1
  Mo  Mo13  1  5.39589000  5.43134000  3.57005000  1
  Mo  Mo14  1  5.44363000  3.68762000  1.78640000  1
  Mo  Mo15  1  3.59473000  5.51771000  1.87534000  1
