# generated using pymatgen
data_Mo
_symmetry_space_group_name_H-M   'P 1'
_cell_length_a   7.28810946
_cell_length_b   7.28810946
_cell_length_c   3.64405465
_cell_angle_alpha   90.00000000
_cell_angle_beta   90.00000000
_cell_angle_gamma   90.00000000
_symmetry_Int_Tables_number   1
_chemical_formula_structural   Mo
_chemical_formula_sum   Mo16
_cell_volume   193.55957265
_cell_formula_units_Z   16
loop_
 _symmetry_equiv_pos_site_id
 _symmetry_equiv_pos_as_xyz
  1  'x, y, z'
loop_
 _atom_site_type_symbol
 _atom_site_label
 _atom_site_symmetry_multiplicity
 _atom_site_fract_x
 _atom_site_fract_y
 _atom_site_fract_z
 _atom_site_occupancy
  Mo  Mo0  1  7.39719000  7.29112000  0.05856210  1
  Mo  Mo1  1  1.76454000  1.80383000  -0.04484110  1
  Mo  Mo2  1  1.76751000  -0.04682510  1.81643000  1
  Mo  Mo3  1  0.05013650  1.86419000  1.81878000  1
  Mo  Mo4  1  3.56902000  7.36118000  -0.01375630  1
  Mo  Mo5  1  5.49499000  1.78950000  3.56572000  1
  Mo  Mo6  1  5.52088000  7.44552000  1.81395000  1
  Mo  Mo7  1  3.64196000  1.89965000  1.80112000  1
  Mo  Mo8  1  7.34171000  3.66049000  3.75291000  1
  Mo  Mo9  1  1.91682000  5.45618000  3.62387000  1
  Mo  Mo10  1  1.87844000  3.51798000  1.85167000  1
  Mo  Mo11  1  -0.14114900  5.43123000  1.92244000  1
  Mo  Mo12  1  3.64400000  3.50200000  3.58238000  1
  Mo  Mo13  1  5.42218000  5.38908000  3.62977000  1
  Mo  Mo14  1  5.33836000  3.68603000  1.71350000  1
  Mo  Mo15  1  3.61740000  5.46094000  1.86355000  1
