# generated using pymatgen
data_Mo
_symmetry_space_group_name_H-M   'P 1'
_cell_length_a   7.28810946
_cell_length_b   7.28810946
_cell_length_c   3.64405465
_cell_angle_alpha   90.00000000
_cell_angle_beta   90.00000000
_cell_angle_gamma   90.00000000
_symmetry_Int_Tables_number   1
_chemical_formula_structural   Mo
_chemical_formula_sum   Mo16
_cell_volume   193.55957265
_cell_formula_units_Z   16
loop_
 _symmetry_equiv_pos_site_id
 _symmetry_equiv_pos_as_xyz
  1  'x, y, z'
loop_
 _atom_site_type_symbol
 _atom_site_label
 _atom_site_symmetry_multiplicity
 _atom_site_fract_x
 _atom_site_fract_y
 _atom_site_fract_z
 _atom_site_occupancy
  Mo  Mo0  1  7.22839000  7.22745000  -0.06834370  1
  Mo  Mo1  1  1.88532000  1.71849000  0.07260980  1
  Mo  Mo2  1  1.71725000  -0.00899291  1.78386000  1
  Mo  Mo3  1  -0.10213600  1.85738000  1.88363000  1
  Mo  Mo4  1  3.61629000  7.14761000  0.06907140  1
  Mo  Mo5  1  5.41438000  1.81104000  3.60222000  1
  Mo  Mo6  1  5.45292000  7.38707000  1.78417000  1
  Mo  Mo7  1  3.66284000  1.78721000  1.81870000  1
  Mo  Mo8  1  7.35889000  3.66101000  3.66968000  1
  Mo  Mo9  1  1.82302000  5.45890000  3.61204000  1
  Mo  Mo10  1  1.94588000  3.75076000  1.83407000  1
  Mo  Mo11  1  0.10515300  5.44582000  1.83423000  1
  Mo  Mo12  1  3.62443000  3.60379000  3.70008000  1
  Mo  Mo13  1  5.36157000  5.53815000  3.58569000  1
  Mo  Mo14  1  5.42894000  3.61804000  1.79256000  1
  Mo  Mo15  1  3.70088000  5.50836000  1.78177000  1
