# generated using pymatgen
data_Mo
_symmetry_space_group_name_H-M   'P 1'
_cell_length_a   7.28810946
_cell_length_b   7.28810946
_cell_length_c   3.64405465
_cell_angle_alpha   90.00000000
_cell_angle_beta   90.00000000
_cell_angle_gamma   90.00000000
_symmetry_Int_Tables_number   1
_chemical_formula_structural   Mo
_chemical_formula_sum   Mo16
_cell_volume   193.55957265
_cell_formula_units_Z   16
loop_
 _symmetry_equiv_pos_site_id
 _symmetry_equiv_pos_as_xyz
  1  'x, y, z'
loop_
 _atom_site_type_symbol
 _atom_site_label
 _atom_site_symmetry_multiplicity
 _atom_site_fract_x
 _atom_site_fract_y
 _atom_site_fract_z
 _atom_site_occupancy
  Mo  Mo0  1  7.40064000  7.17725000  0.07019190  1
  Mo  Mo1  1  1.87023000  1.80594000  0.00170058  1
  Mo  Mo2  1  1.77203000  0.10056300  1.89153000  1
  Mo  Mo3  1  0.03891130  1.90929000  1.79160000  1
  Mo  Mo4  1  3.54226000  7.18446000  0.09673610  1
  Mo  Mo5  1  5.33712000  1.68644000  3.61786000  1
  Mo  Mo6  1  5.50628000  7.17018000  1.83998000  1
  Mo  Mo7  1  3.58801000  1.76606000  1.87203000  1
  Mo  Mo8  1  7.14800000  3.70253000  3.69995000  1
  Mo  Mo9  1  1.83578000  5.38894000  3.52972000  1
  Mo  Mo10  1  1.93627000  3.72799000  1.75219000  1
  Mo  Mo11  1  0.09870700  5.37846000  1.83145000  1
  Mo  Mo12  1  3.64878000  3.76177000  3.62956000  1
  Mo  Mo13  1  5.48200000  5.57091000  3.57540000  1
  Mo  Mo14  1  5.38506000  3.66960000  1.74324000  1
  Mo  Mo15  1  3.63391000  5.51173000  1.81291000  1
