# generated using pymatgen
data_Mo
_symmetry_space_group_name_H-M   'P 1'
_cell_length_a   7.28810946
_cell_length_b   7.28810946
_cell_length_c   3.64405465
_cell_angle_alpha   90.00000000
_cell_angle_beta   90.00000000
_cell_angle_gamma   90.00000000
_symmetry_Int_Tables_number   1
_chemical_formula_structural   Mo
_chemical_formula_sum   Mo16
_cell_volume   193.55957265
_cell_formula_units_Z   16
loop_
 _symmetry_equiv_pos_site_id
 _symmetry_equiv_pos_as_xyz
  1  'x, y, z'
loop_
 _atom_site_type_symbol
 _atom_site_label
 _atom_site_symmetry_multiplicity
 _atom_site_fract_x
 _atom_site_fract_y
 _atom_site_fract_z
 _atom_site_occupancy
  Mo  Mo0  1  7.23019000  7.22555000  -0.02499360  1
  Mo  Mo1  1  1.83256000  1.87746000  -0.00536629  1
  Mo  Mo2  1  1.76723000  0.02638950  1.82190000  1
  Mo  Mo3  1  -0.03234490  1.73552000  1.90702000  1
  Mo  Mo4  1  3.71563000  7.20080000  0.11692000  1
  Mo  Mo5  1  5.47171000  1.85447000  3.63380000  1
  Mo  Mo6  1  5.50856000  7.34493000  1.82051000  1
  Mo  Mo7  1  3.66996000  1.85363000  1.82373000  1
  Mo  Mo8  1  7.25856000  3.61578000  3.64320000  1
  Mo  Mo9  1  1.78758000  5.41936000  3.56820000  1
  Mo  Mo10  1  1.78909000  3.73672000  1.73467000  1
  Mo  Mo11  1  -0.00631048  5.44711000  1.86461000  1
  Mo  Mo12  1  3.56591000  3.65785000  3.65822000  1
  Mo  Mo13  1  5.33934000  5.45361000  3.61161000  1
  Mo  Mo14  1  5.51788000  3.56405000  1.80912000  1
  Mo  Mo15  1  3.80846000  5.49888000  1.77289000  1
