# generated using pymatgen
data_Mo
_symmetry_space_group_name_H-M   'P 1'
_cell_length_a   7.28810946
_cell_length_b   7.28810946
_cell_length_c   3.64405465
_cell_angle_alpha   90.00000000
_cell_angle_beta   90.00000000
_cell_angle_gamma   90.00000000
_symmetry_Int_Tables_number   1
_chemical_formula_structural   Mo
_chemical_formula_sum   Mo16
_cell_volume   193.55957265
_cell_formula_units_Z   16
loop_
 _symmetry_equiv_pos_site_id
 _symmetry_equiv_pos_as_xyz
  1  'x, y, z'
loop_
 _atom_site_type_symbol
 _atom_site_label
 _atom_site_symmetry_multiplicity
 _atom_site_fract_x
 _atom_site_fract_y
 _atom_site_fract_z
 _atom_site_occupancy
  Mo  Mo0  1  7.36794000  7.27064000  0.04521300  1
  Mo  Mo1  1  1.80729000  1.87603000  -0.04699020  1
  Mo  Mo2  1  1.75967000  -0.04029630  1.87080000  1
  Mo  Mo3  1  0.13428100  1.84935000  1.81663000  1
  Mo  Mo4  1  3.60258000  7.39457000  -0.08827100  1
  Mo  Mo5  1  5.41251000  1.89809000  3.63554000  1
  Mo  Mo6  1  5.61449000  7.23263000  1.83490000  1
  Mo  Mo7  1  3.62056000  1.79166000  1.79205000  1
  Mo  Mo8  1  7.25157000  3.64991000  3.61557000  1
  Mo  Mo9  1  1.79011000  5.49887000  3.61944000  1
  Mo  Mo10  1  1.71795000  3.53745000  1.83186000  1
  Mo  Mo11  1  -0.05700060  5.40184000  1.82849000  1
  Mo  Mo12  1  3.59817000  3.65782000  3.60434000  1
  Mo  Mo13  1  5.49270000  5.35416000  3.68221000  1
  Mo  Mo14  1  5.52938000  3.61064000  1.88246000  1
  Mo  Mo15  1  3.58180000  5.52875000  1.83182000  1
