# generated using pymatgen
data_Mo
_symmetry_space_group_name_H-M   'P 1'
_cell_length_a   7.28810946
_cell_length_b   7.28810946
_cell_length_c   3.64405465
_cell_angle_alpha   90.00000000
_cell_angle_beta   90.00000000
_cell_angle_gamma   90.00000000
_symmetry_Int_Tables_number   1
_chemical_formula_structural   Mo
_chemical_formula_sum   Mo16
_cell_volume   193.55957265
_cell_formula_units_Z   16
loop_
 _symmetry_equiv_pos_site_id
 _symmetry_equiv_pos_as_xyz
  1  'x, y, z'
loop_
 _atom_site_type_symbol
 _atom_site_label
 _atom_site_symmetry_multiplicity
 _atom_site_fract_x
 _atom_site_fract_y
 _atom_site_fract_z
 _atom_site_occupancy
  Mo  Mo0  1  7.31012000  7.38946000  0.06094970  1
  Mo  Mo1  1  1.92181000  1.77963000  0.00742071  1
  Mo  Mo2  1  1.80839000  0.03754000  1.82184000  1
  Mo  Mo3  1  -0.07149080  1.87546000  1.92144000  1
  Mo  Mo4  1  3.72640000  7.24723000  0.10965300  1
  Mo  Mo5  1  5.50282000  1.80126000  3.68582000  1
  Mo  Mo6  1  5.55345000  7.27592000  1.99331000  1
  Mo  Mo7  1  3.64843000  1.80956000  1.83626000  1
  Mo  Mo8  1  7.37042000  3.54106000  3.61875000  1
  Mo  Mo9  1  1.78114000  5.42788000  3.65645000  1
  Mo  Mo10  1  1.74193000  3.73902000  1.67633000  1
  Mo  Mo11  1  -0.03519250  5.34250000  1.69811000  1
  Mo  Mo12  1  3.52970000  3.68792000  3.54689000  1
  Mo  Mo13  1  5.40876000  5.46861000  3.65701000  1
  Mo  Mo14  1  5.42604000  3.62232000  1.68606000  1
  Mo  Mo15  1  3.60129000  5.46673000  1.77976000  1
