# generated using pymatgen
data_Mo
_symmetry_space_group_name_H-M   'P 1'
_cell_length_a   7.28810946
_cell_length_b   7.28810946
_cell_length_c   3.64405465
_cell_angle_alpha   90.00000000
_cell_angle_beta   90.00000000
_cell_angle_gamma   90.00000000
_symmetry_Int_Tables_number   1
_chemical_formula_structural   Mo
_chemical_formula_sum   Mo16
_cell_volume   193.55957265
_cell_formula_units_Z   16
loop_
 _symmetry_equiv_pos_site_id
 _symmetry_equiv_pos_as_xyz
  1  'x, y, z'
loop_
 _atom_site_type_symbol
 _atom_site_label
 _atom_site_symmetry_multiplicity
 _atom_site_fract_x
 _atom_site_fract_y
 _atom_site_fract_z
 _atom_site_occupancy
  Mo  Mo0  1  7.20855000  7.32499000  0.07249200  1
  Mo  Mo1  1  1.74624000  1.78890000  0.09080060  1
  Mo  Mo2  1  1.83081000  -0.17715000  1.90946000  1
  Mo  Mo3  1  -0.01191130  1.84624000  1.81372000  1
  Mo  Mo4  1  3.64847000  7.41104000  -0.05955500  1
  Mo  Mo5  1  5.55821000  1.75849000  3.75243000  1
  Mo  Mo6  1  5.41947000  7.35940000  1.80974000  1
  Mo  Mo7  1  3.65915000  1.93913000  1.91226000  1
  Mo  Mo8  1  7.31100000  3.57991000  3.60367000  1
  Mo  Mo9  1  1.82691000  5.48273000  3.58289000  1
  Mo  Mo10  1  1.76712000  3.70317000  1.81963000  1
  Mo  Mo11  1  -0.12703800  5.42600000  1.71250000  1
  Mo  Mo12  1  3.73889000  3.67644000  3.54240000  1
  Mo  Mo13  1  5.58387000  5.45376000  3.63132000  1
  Mo  Mo14  1  5.50048000  3.55271000  1.81105000  1
  Mo  Mo15  1  3.56377000  5.38635000  1.75124000  1
