# generated using pymatgen
data_Mo
_symmetry_space_group_name_H-M   'P 1'
_cell_length_a   7.27808089
_cell_length_b   7.27808089
_cell_length_c   3.63904047
_cell_angle_alpha   90.00000000
_cell_angle_beta   90.00000000
_cell_angle_gamma   90.00000000
_symmetry_Int_Tables_number   1
_chemical_formula_structural   Mo
_chemical_formula_sum   Mo16
_cell_volume   192.76165285
_cell_formula_units_Z   16
loop_
 _symmetry_equiv_pos_site_id
 _symmetry_equiv_pos_as_xyz
  1  'x, y, z'
loop_
 _atom_site_type_symbol
 _atom_site_label
 _atom_site_symmetry_multiplicity
 _atom_site_fract_x
 _atom_site_fract_y
 _atom_site_fract_z
 _atom_site_occupancy
  Mo  Mo0  1  -0.00497404  7.27971000  0.00412806  1
  Mo  Mo1  1  1.82068000  1.82562000  0.00330755  1
  Mo  Mo2  1  1.83384000  7.27473000  1.82513000  1
  Mo  Mo3  1  7.27515000  1.82593000  1.81459000  1
  Mo  Mo4  1  3.62984000  7.27492000  3.62683000  1
  Mo  Mo5  1  5.46814000  1.81539000  0.01088220  1
  Mo  Mo6  1  5.46867000  -0.00895693  1.82900000  1
  Mo  Mo7  1  3.64098000  1.82201000  1.81879000  1
  Mo  Mo8  1  7.28388000  3.62882000  3.64493000  1
  Mo  Mo9  1  1.81005000  5.45636000  3.63393000  1
  Mo  Mo10  1  1.81903000  3.65260000  1.82080000  1
  Mo  Mo11  1  7.27440000  5.46582000  1.82009000  1
  Mo  Mo12  1  3.64633000  3.63962000  0.00847237  1
  Mo  Mo13  1  5.45226000  5.44891000  3.62879000  1
  Mo  Mo14  1  5.45204000  3.64305000  1.80798000  1
  Mo  Mo15  1  3.63176000  5.45755000  1.81434000  1
