# generated using pymatgen
data_Mo
_symmetry_space_group_name_H-M   'P 1'
_cell_length_a   7.27806742
_cell_length_b   7.27806742
_cell_length_c   3.63903379
_cell_angle_alpha   90.00000000
_cell_angle_beta   90.00000000
_cell_angle_gamma   90.00000000
_symmetry_Int_Tables_number   1
_chemical_formula_structural   Mo
_chemical_formula_sum   Mo16
_cell_volume   192.76058556
_cell_formula_units_Z   16
loop_
 _symmetry_equiv_pos_site_id
 _symmetry_equiv_pos_as_xyz
  1  'x, y, z'
loop_
 _atom_site_type_symbol
 _atom_site_label
 _atom_site_symmetry_multiplicity
 _atom_site_fract_x
 _atom_site_fract_y
 _atom_site_fract_z
 _atom_site_occupancy
  Mo  Mo0  1  0.00898520  7.29510000  3.64602000  1
  Mo  Mo1  1  1.82137000  1.81186000  -0.00372256  1
  Mo  Mo2  1  1.80933000  7.25644000  1.81443000  1
  Mo  Mo3  1  7.24249000  1.82334000  1.82525000  1
  Mo  Mo4  1  3.61339000  7.27747000  0.01926970  1
  Mo  Mo5  1  5.47022000  1.83915000  0.02122700  1
  Mo  Mo6  1  5.42615000  -0.02437760  1.82208000  1
  Mo  Mo7  1  3.65817000  1.83580000  1.86063000  1
  Mo  Mo8  1  7.28641000  3.63595000  3.61942000  1
  Mo  Mo9  1  1.82689000  5.46069000  3.61054000  1
  Mo  Mo10  1  1.83815000  3.65712000  1.82452000  1
  Mo  Mo11  1  0.00433113  5.45854000  1.79165000  1
  Mo  Mo12  1  3.64711000  3.63130000  3.59136000  1
  Mo  Mo13  1  5.46988000  5.46978000  3.66762000  1
  Mo  Mo14  1  5.44964000  3.62223000  1.81576000  1
  Mo  Mo15  1  3.65147000  5.45167000  1.82500000  1
