# generated using pymatgen
data_Mo
_symmetry_space_group_name_H-M   'P 1'
_cell_length_a   7.28810946
_cell_length_b   7.28810946
_cell_length_c   3.64405465
_cell_angle_alpha   90.00000000
_cell_angle_beta   90.00000000
_cell_angle_gamma   90.00000000
_symmetry_Int_Tables_number   1
_chemical_formula_structural   Mo
_chemical_formula_sum   Mo16
_cell_volume   193.55957265
_cell_formula_units_Z   16
loop_
 _symmetry_equiv_pos_site_id
 _symmetry_equiv_pos_as_xyz
  1  'x, y, z'
loop_
 _atom_site_type_symbol
 _atom_site_label
 _atom_site_symmetry_multiplicity
 _atom_site_fract_x
 _atom_site_fract_y
 _atom_site_fract_z
 _atom_site_occupancy
  Mo  Mo0  1  7.30990000  7.20084000  -0.00290052  1
  Mo  Mo1  1  1.70816000  1.95464000  -0.08338930  1
  Mo  Mo2  1  1.94995000  -0.06748190  1.79706000  1
  Mo  Mo3  1  -0.00987426  1.74285000  1.85366000  1
  Mo  Mo4  1  3.61497000  7.27406000  0.01034510  1
  Mo  Mo5  1  5.52210000  1.80612000  3.70749000  1
  Mo  Mo6  1  5.44915000  7.29765000  1.84544000  1
  Mo  Mo7  1  3.69286000  1.90743000  1.78047000  1
  Mo  Mo8  1  7.23871000  3.72016000  3.58831000  1
  Mo  Mo9  1  1.83808000  5.44795000  3.53849000  1
  Mo  Mo10  1  1.80017000  3.75246000  1.84090000  1
  Mo  Mo11  1  -0.00771768  5.53243000  1.82359000  1
  Mo  Mo12  1  3.64185000  3.48527000  3.69200000  1
  Mo  Mo13  1  5.41992000  5.44303000  3.71140000  1
  Mo  Mo14  1  5.45528000  3.61013000  1.83360000  1
  Mo  Mo15  1  3.60048000  5.40458000  1.81960000  1
