# generated using pymatgen
data_Mo
_symmetry_space_group_name_H-M   'P 1'
_cell_length_a   7.27806742
_cell_length_b   7.27806742
_cell_length_c   3.63903379
_cell_angle_alpha   90.00000000
_cell_angle_beta   90.00000000
_cell_angle_gamma   90.00000000
_symmetry_Int_Tables_number   1
_chemical_formula_structural   Mo
_chemical_formula_sum   Mo16
_cell_volume   192.76058556
_cell_formula_units_Z   16
loop_
 _symmetry_equiv_pos_site_id
 _symmetry_equiv_pos_as_xyz
  1  'x, y, z'
loop_
 _atom_site_type_symbol
 _atom_site_label
 _atom_site_symmetry_multiplicity
 _atom_site_fract_x
 _atom_site_fract_y
 _atom_site_fract_z
 _atom_site_occupancy
  Mo  Mo0  1  -0.00865730  7.27357000  3.64830000  1
  Mo  Mo1  1  1.83242000  1.82478000  -0.00866178  1
  Mo  Mo2  1  1.82347000  7.30419000  1.84098000  1
  Mo  Mo3  1  7.30210000  1.81824000  1.82346000  1
  Mo  Mo4  1  3.64463000  7.27323000  -0.01026160  1
  Mo  Mo5  1  5.45830000  1.81107000  -0.01371560  1
  Mo  Mo6  1  5.46124000  0.00225891  1.79381000  1
  Mo  Mo7  1  3.63840000  1.81094000  1.79449000  1
  Mo  Mo8  1  7.27348000  3.65362000  3.64864000  1
  Mo  Mo9  1  1.83146000  5.45049000  3.62600000  1
  Mo  Mo10  1  1.78973000  3.63427000  1.83965000  1
  Mo  Mo11  1  -0.00716909  5.45566000  1.80603000  1
  Mo  Mo12  1  3.63138000  3.64669000  3.63870000  1
  Mo  Mo13  1  5.47434000  5.44446000  3.68030000  1
  Mo  Mo14  1  5.44263000  3.63468000  1.82367000  1
  Mo  Mo15  1  3.63625000  5.46392000  1.81965000  1
