# generated using pymatgen
data_Mo
_symmetry_space_group_name_H-M   'P 1'
_cell_length_a   7.27806742
_cell_length_b   7.27806742
_cell_length_c   3.63903379
_cell_angle_alpha   90.00000000
_cell_angle_beta   90.00000000
_cell_angle_gamma   90.00000000
_symmetry_Int_Tables_number   1
_chemical_formula_structural   Mo
_chemical_formula_sum   Mo16
_cell_volume   192.76058556
_cell_formula_units_Z   16
loop_
 _symmetry_equiv_pos_site_id
 _symmetry_equiv_pos_as_xyz
  1  'x, y, z'
loop_
 _atom_site_type_symbol
 _atom_site_label
 _atom_site_symmetry_multiplicity
 _atom_site_fract_x
 _atom_site_fract_y
 _atom_site_fract_z
 _atom_site_occupancy
  Mo  Mo0  1  -0.00932248  7.27848000  3.62996000  1
  Mo  Mo1  1  1.85509000  1.83092000  0.00755664  1
  Mo  Mo2  1  1.81571000  7.29054000  1.82947000  1
  Mo  Mo3  1  7.29689000  1.81325000  1.83404000  1
  Mo  Mo4  1  3.66330000  7.27934000  -0.01258790  1
  Mo  Mo5  1  5.45171000  1.81926000  -0.01389020  1
  Mo  Mo6  1  5.44939000  -0.01912540  1.78113000  1
  Mo  Mo7  1  3.62022000  1.82709000  1.81002000  1
  Mo  Mo8  1  7.25623000  3.64972000  3.63534000  1
  Mo  Mo9  1  1.82448000  5.43687000  3.64880000  1
  Mo  Mo10  1  1.79975000  3.62271000  1.82818000  1
  Mo  Mo11  1  -0.00060345  5.45044000  1.82930000  1
  Mo  Mo12  1  3.64747000  3.65115000  3.63379000  1
  Mo  Mo13  1  5.45498000  5.47308000  3.66156000  1
  Mo  Mo14  1  5.45689000  3.63705000  1.82847000  1
  Mo  Mo15  1  3.64180000  5.46130000  1.81988000  1
