# generated using pymatgen
data_Mo
_symmetry_space_group_name_H-M   'P 1'
_cell_length_a   7.27806742
_cell_length_b   7.27806742
_cell_length_c   3.63903379
_cell_angle_alpha   90.00000000
_cell_angle_beta   90.00000000
_cell_angle_gamma   90.00000000
_symmetry_Int_Tables_number   1
_chemical_formula_structural   Mo
_chemical_formula_sum   Mo16
_cell_volume   192.76058556
_cell_formula_units_Z   16
loop_
 _symmetry_equiv_pos_site_id
 _symmetry_equiv_pos_as_xyz
  1  'x, y, z'
loop_
 _atom_site_type_symbol
 _atom_site_label
 _atom_site_symmetry_multiplicity
 _atom_site_fract_x
 _atom_site_fract_y
 _atom_site_fract_z
 _atom_site_occupancy
  Mo  Mo0  1  -0.02608510  7.27635000  3.61449000  1
  Mo  Mo1  1  1.80990000  1.82216000  0.01180290  1
  Mo  Mo2  1  1.82093000  7.25338000  1.79703000  1
  Mo  Mo3  1  7.28016000  1.83281000  1.81330000  1
  Mo  Mo4  1  3.63929000  7.29339000  -0.00027433  1
  Mo  Mo5  1  5.44938000  1.81986000  -0.00830232  1
  Mo  Mo6  1  5.45975000  -0.01061870  1.85561000  1
  Mo  Mo7  1  3.62859000  1.81657000  1.82299000  1
  Mo  Mo8  1  7.29791000  3.62304000  3.67324000  1
  Mo  Mo9  1  1.81177000  5.48618000  3.63497000  1
  Mo  Mo10  1  1.83375000  3.63921000  1.81063000  1
  Mo  Mo11  1  -0.00006495  5.44904000  1.82361000  1
  Mo  Mo12  1  3.64827000  3.62118000  3.63454000  1
  Mo  Mo13  1  5.45845000  5.45666000  3.61942000  1
  Mo  Mo14  1  5.46961000  3.67349000  1.82071000  1
  Mo  Mo15  1  3.64238000  5.44936000  1.82727000  1
