# generated using pymatgen
data_Mo
_symmetry_space_group_name_H-M   'P 1'
_cell_length_a   7.27806742
_cell_length_b   7.27806742
_cell_length_c   3.63903379
_cell_angle_alpha   90.00000000
_cell_angle_beta   90.00000000
_cell_angle_gamma   90.00000000
_symmetry_Int_Tables_number   1
_chemical_formula_structural   Mo
_chemical_formula_sum   Mo16
_cell_volume   192.76058556
_cell_formula_units_Z   16
loop_
 _symmetry_equiv_pos_site_id
 _symmetry_equiv_pos_as_xyz
  1  'x, y, z'
loop_
 _atom_site_type_symbol
 _atom_site_label
 _atom_site_symmetry_multiplicity
 _atom_site_fract_x
 _atom_site_fract_y
 _atom_site_fract_z
 _atom_site_occupancy
  Mo  Mo0  1  -0.02000940  7.27611000  3.60384000  1
  Mo  Mo1  1  1.83366000  1.81671000  0.01820560  1
  Mo  Mo2  1  1.77971000  7.27204000  1.80634000  1
  Mo  Mo3  1  7.28497000  1.80913000  1.83276000  1
  Mo  Mo4  1  3.63995000  7.28465000  0.02469820  1
  Mo  Mo5  1  5.46592000  1.82456000  0.02799020  1
  Mo  Mo6  1  5.46225000  0.02009030  1.86807000  1
  Mo  Mo7  1  3.62015000  1.81033000  1.82528000  1
  Mo  Mo8  1  7.27817000  3.65110000  3.61620000  1
  Mo  Mo9  1  1.83113000  5.47026000  3.63765000  1
  Mo  Mo10  1  1.81196000  3.62382000  1.78957000  1
  Mo  Mo11  1  0.02505660  5.46233000  1.81983000  1
  Mo  Mo12  1  3.65783000  3.65084000  3.64955000  1
  Mo  Mo13  1  5.45992000  5.44255000  3.62723000  1
  Mo  Mo14  1  5.46634000  3.62618000  1.80134000  1
  Mo  Mo15  1  3.62698000  5.46137000  1.80248000  1
