# generated using pymatgen
data_Mo
_symmetry_space_group_name_H-M   'P 1'
_cell_length_a   7.27806742
_cell_length_b   7.27806742
_cell_length_c   3.63903379
_cell_angle_alpha   90.00000000
_cell_angle_beta   90.00000000
_cell_angle_gamma   90.00000000
_symmetry_Int_Tables_number   1
_chemical_formula_structural   Mo
_chemical_formula_sum   Mo16
_cell_volume   192.76058556
_cell_formula_units_Z   16
loop_
 _symmetry_equiv_pos_site_id
 _symmetry_equiv_pos_as_xyz
  1  'x, y, z'
loop_
 _atom_site_type_symbol
 _atom_site_label
 _atom_site_symmetry_multiplicity
 _atom_site_fract_x
 _atom_site_fract_y
 _atom_site_fract_z
 _atom_site_occupancy
  Mo  Mo0  1  -0.00538089  7.25904000  3.65696000  1
  Mo  Mo1  1  1.80212000  1.80618000  -0.01514910  1
  Mo  Mo2  1  1.81034000  7.28759000  1.83333000  1
  Mo  Mo3  1  7.25921000  1.81709000  1.83003000  1
  Mo  Mo4  1  3.62580000  7.26090000  0.02073640  1
  Mo  Mo5  1  5.46104000  1.83696000  0.01550580  1
  Mo  Mo6  1  5.45789000  0.01371450  1.83103000  1
  Mo  Mo7  1  3.64001000  1.82122000  1.83583000  1
  Mo  Mo8  1  7.29163000  3.64739000  3.61230000  1
  Mo  Mo9  1  1.81166000  5.46435000  3.61304000  1
  Mo  Mo10  1  1.84983000  3.64317000  1.79745000  1
  Mo  Mo11  1  0.01862290  5.46575000  1.79663000  1
  Mo  Mo12  1  3.64451000  3.63405000  3.65080000  1
  Mo  Mo13  1  5.44736000  5.45117000  3.62973000  1
  Mo  Mo14  1  5.47127000  3.62576000  1.83334000  1
  Mo  Mo15  1  3.63809000  5.46774000  1.80947000  1
