# generated using pymatgen
data_Mo
_symmetry_space_group_name_H-M   'P 1'
_cell_length_a   7.27806742
_cell_length_b   7.27806742
_cell_length_c   3.63903379
_cell_angle_alpha   90.00000000
_cell_angle_beta   90.00000000
_cell_angle_gamma   90.00000000
_symmetry_Int_Tables_number   1
_chemical_formula_structural   Mo
_chemical_formula_sum   Mo16
_cell_volume   192.76058556
_cell_formula_units_Z   16
loop_
 _symmetry_equiv_pos_site_id
 _symmetry_equiv_pos_as_xyz
  1  'x, y, z'
loop_
 _atom_site_type_symbol
 _atom_site_label
 _atom_site_symmetry_multiplicity
 _atom_site_fract_x
 _atom_site_fract_y
 _atom_site_fract_z
 _atom_site_occupancy
  Mo  Mo0  1  -0.01732460  7.29720000  3.65036000  1
  Mo  Mo1  1  1.79408000  1.80516000  -0.01337170  1
  Mo  Mo2  1  1.80822000  7.26898000  1.80904000  1
  Mo  Mo3  1  7.26935000  1.81710000  1.82853000  1
  Mo  Mo4  1  3.63259000  7.28572000  -0.00051427  1
  Mo  Mo5  1  5.44186000  1.82586000  0.00724404  1
  Mo  Mo6  1  5.48000000  0.01042800  1.79790000  1
  Mo  Mo7  1  3.64440000  1.80355000  1.81451000  1
  Mo  Mo8  1  7.28819000  3.63633000  3.65621000  1
  Mo  Mo9  1  1.84167000  5.45790000  3.63499000  1
  Mo  Mo10  1  1.82191000  3.65321000  1.83560000  1
  Mo  Mo11  1  0.01557130  5.45429000  1.81244000  1
  Mo  Mo12  1  3.65756000  3.63139000  3.63790000  1
  Mo  Mo13  1  5.43985000  5.45246000  3.65361000  1
  Mo  Mo14  1  5.48897000  3.64639000  1.80139000  1
  Mo  Mo15  1  3.61711000  5.45609000  1.82520000  1
