# generated using pymatgen
data_Mo
_symmetry_space_group_name_H-M   'P 1'
_cell_length_a   7.27806742
_cell_length_b   7.27806742
_cell_length_c   3.63903379
_cell_angle_alpha   90.00000000
_cell_angle_beta   90.00000000
_cell_angle_gamma   90.00000000
_symmetry_Int_Tables_number   1
_chemical_formula_structural   Mo
_chemical_formula_sum   Mo16
_cell_volume   192.76058556
_cell_formula_units_Z   16
loop_
 _symmetry_equiv_pos_site_id
 _symmetry_equiv_pos_as_xyz
  1  'x, y, z'
loop_
 _atom_site_type_symbol
 _atom_site_label
 _atom_site_symmetry_multiplicity
 _atom_site_fract_x
 _atom_site_fract_y
 _atom_site_fract_z
 _atom_site_occupancy
  Mo  Mo0  1  -0.00813058  7.28577000  3.61936000  1
  Mo  Mo1  1  1.81420000  1.82986000  0.00992257  1
  Mo  Mo2  1  1.81588000  7.25953000  1.82595000  1
  Mo  Mo3  1  7.26263000  1.82283000  1.85144000  1
  Mo  Mo4  1  3.64623000  7.26833000  -0.02643300  1
  Mo  Mo5  1  5.44391000  1.82956000  -0.02729110  1
  Mo  Mo6  1  5.46219000  0.00662820  1.79358000  1
  Mo  Mo7  1  3.62854000  1.80359000  1.79952000  1
  Mo  Mo8  1  7.28289000  3.63354000  3.64581000  1
  Mo  Mo9  1  1.82778000  5.45551000  3.64921000  1
  Mo  Mo10  1  1.81496000  3.64096000  1.81966000  1
  Mo  Mo11  1  0.00903599  5.45909000  1.83775000  1
  Mo  Mo12  1  3.66101000  3.64801000  3.65042000  1
  Mo  Mo13  1  5.43583000  5.46322000  3.65359000  1
  Mo  Mo14  1  5.49444000  3.62697000  1.81988000  1
  Mo  Mo15  1  3.63260000  5.46865000  1.82868000  1
