# generated using pymatgen
data_Mo
_symmetry_space_group_name_H-M   'P 1'
_cell_length_a   7.27806742
_cell_length_b   7.27806742
_cell_length_c   3.63903379
_cell_angle_alpha   90.00000000
_cell_angle_beta   90.00000000
_cell_angle_gamma   90.00000000
_symmetry_Int_Tables_number   1
_chemical_formula_structural   Mo
_chemical_formula_sum   Mo16
_cell_volume   192.76058556
_cell_formula_units_Z   16
loop_
 _symmetry_equiv_pos_site_id
 _symmetry_equiv_pos_as_xyz
  1  'x, y, z'
loop_
 _atom_site_type_symbol
 _atom_site_label
 _atom_site_symmetry_multiplicity
 _atom_site_fract_x
 _atom_site_fract_y
 _atom_site_fract_z
 _atom_site_occupancy
  Mo  Mo0  1  0.00600896  7.28591000  3.64163000  1
  Mo  Mo1  1  1.81495000  1.81167000  0.01010140  1
  Mo  Mo2  1  1.80290000  7.26545000  1.82112000  1
  Mo  Mo3  1  7.25646000  1.81856000  1.82617000  1
  Mo  Mo4  1  3.61571000  7.26682000  0.00699004  1
  Mo  Mo5  1  5.47822000  1.83847000  0.00789894  1
  Mo  Mo6  1  5.43101000  0.00328143  1.82586000  1
  Mo  Mo7  1  3.64761000  1.83222000  1.84535000  1
  Mo  Mo8  1  7.28633000  3.63608000  3.61713000  1
  Mo  Mo9  1  1.81863000  5.46117000  3.60904000  1
  Mo  Mo10  1  1.83439000  3.64217000  1.81356000  1
  Mo  Mo11  1  0.00299866  5.46603000  1.79335000  1
  Mo  Mo12  1  3.64562000  3.64303000  3.61187000  1
  Mo  Mo13  1  5.48206000  5.46778000  3.66160000  1
  Mo  Mo14  1  5.45161000  3.60845000  1.83011000  1
  Mo  Mo15  1  3.64949000  5.45498000  1.82926000  1
