# generated using pymatgen
data_Mo
_symmetry_space_group_name_H-M   'P 1'
_cell_length_a   7.27806742
_cell_length_b   7.27806742
_cell_length_c   3.63903379
_cell_angle_alpha   90.00000000
_cell_angle_beta   90.00000000
_cell_angle_gamma   90.00000000
_symmetry_Int_Tables_number   1
_chemical_formula_structural   Mo
_chemical_formula_sum   Mo16
_cell_volume   192.76058556
_cell_formula_units_Z   16
loop_
 _symmetry_equiv_pos_site_id
 _symmetry_equiv_pos_as_xyz
  1  'x, y, z'
loop_
 _atom_site_type_symbol
 _atom_site_label
 _atom_site_symmetry_multiplicity
 _atom_site_fract_x
 _atom_site_fract_y
 _atom_site_fract_z
 _atom_site_occupancy
  Mo  Mo0  1  -0.00662794  7.26691000  3.63838000  1
  Mo  Mo1  1  1.83340000  1.82841000  -0.00837106  1
  Mo  Mo2  1  1.81920000  7.29118000  1.80004000  1
  Mo  Mo3  1  7.29478000  1.82037000  1.80402000  1
  Mo  Mo4  1  3.66753000  7.26907000  -0.02486250  1
  Mo  Mo5  1  5.46245000  1.83074000  -0.00624188  1
  Mo  Mo6  1  5.46524000  -0.01049160  1.79911000  1
  Mo  Mo7  1  3.63216000  1.81150000  1.82249000  1
  Mo  Mo8  1  7.26337000  3.65905000  3.66164000  1
  Mo  Mo9  1  1.83971000  5.45230000  3.66767000  1
  Mo  Mo10  1  1.79495000  3.61648000  1.86522000  1
  Mo  Mo11  1  0.00235411  5.45915000  1.83354000  1
  Mo  Mo12  1  3.63165000  3.65470000  3.60707000  1
  Mo  Mo13  1  5.45465000  5.46076000  3.64978000  1
  Mo  Mo14  1  5.44421000  3.62428000  1.80614000  1
  Mo  Mo15  1  3.62499000  5.46765000  1.83542000  1
