# generated using pymatgen
data_Mo
_symmetry_space_group_name_H-M   'P 1'
_cell_length_a   7.27808089
_cell_length_b   7.27808089
_cell_length_c   3.63904047
_cell_angle_alpha   90.00000000
_cell_angle_beta   90.00000000
_cell_angle_gamma   90.00000000
_symmetry_Int_Tables_number   1
_chemical_formula_structural   Mo
_chemical_formula_sum   Mo16
_cell_volume   192.76165285
_cell_formula_units_Z   16
loop_
 _symmetry_equiv_pos_site_id
 _symmetry_equiv_pos_as_xyz
  1  'x, y, z'
loop_
 _atom_site_type_symbol
 _atom_site_label
 _atom_site_symmetry_multiplicity
 _atom_site_fract_x
 _atom_site_fract_y
 _atom_site_fract_z
 _atom_site_occupancy
  Mo  Mo0  1  0.00470351  7.26658000  0.00079865  1
  Mo  Mo1  1  1.81898000  1.81644000  -0.01052980  1
  Mo  Mo2  1  1.82719000  7.28643000  1.82056000  1
  Mo  Mo3  1  7.27479000  1.82126000  1.81177000  1
  Mo  Mo4  1  3.64007000  7.27009000  3.64844000  1
  Mo  Mo5  1  5.44623000  1.81357000  -0.00895112  1
  Mo  Mo6  1  5.46053000  -0.00272663  1.80671000  1
  Mo  Mo7  1  3.62879000  1.83121000  1.81395000  1
  Mo  Mo8  1  7.27785000  3.64994000  3.62760000  1
  Mo  Mo9  1  1.82279000  5.45028000  3.64821000  1
  Mo  Mo10  1  1.81653000  3.63759000  1.82093000  1
  Mo  Mo11  1  7.28126000  5.45972000  1.81192000  1
  Mo  Mo12  1  3.63683000  3.64406000  0.00666613  1
  Mo  Mo13  1  5.46055000  5.45655000  3.65009000  1
  Mo  Mo14  1  5.46702000  3.64370000  1.83412000  1
  Mo  Mo15  1  3.63797000  5.45737000  1.82974000  1
