# generated using pymatgen
data_Mo
_symmetry_space_group_name_H-M   'P 1'
_cell_length_a   7.27806742
_cell_length_b   7.27806742
_cell_length_c   3.63903379
_cell_angle_alpha   90.00000000
_cell_angle_beta   90.00000000
_cell_angle_gamma   90.00000000
_symmetry_Int_Tables_number   1
_chemical_formula_structural   Mo
_chemical_formula_sum   Mo16
_cell_volume   192.76058556
_cell_formula_units_Z   16
loop_
 _symmetry_equiv_pos_site_id
 _symmetry_equiv_pos_as_xyz
  1  'x, y, z'
loop_
 _atom_site_type_symbol
 _atom_site_label
 _atom_site_symmetry_multiplicity
 _atom_site_fract_x
 _atom_site_fract_y
 _atom_site_fract_z
 _atom_site_occupancy
  Mo  Mo0  1  0.00852675  7.27671000  3.65009000  1
  Mo  Mo1  1  1.79665000  1.81287000  0.00578122  1
  Mo  Mo2  1  1.83442000  7.27012000  1.79510000  1
  Mo  Mo3  1  7.26008000  1.81719000  1.81327000  1
  Mo  Mo4  1  3.62560000  7.25829000  0.00457699  1
  Mo  Mo5  1  5.45457000  1.83347000  0.01712720  1
  Mo  Mo6  1  5.44066000  0.01764430  1.81915000  1
  Mo  Mo7  1  3.64234000  1.82412000  1.83936000  1
  Mo  Mo8  1  7.28967000  3.64221000  3.63978000  1
  Mo  Mo9  1  1.80594000  5.45376000  3.64898000  1
  Mo  Mo10  1  1.85729000  3.63704000  1.81932000  1
  Mo  Mo11  1  0.00070973  5.45679000  1.81658000  1
  Mo  Mo12  1  3.64632000  3.65760000  3.62738000  1
  Mo  Mo13  1  5.46163000  5.47021000  3.61881000  1
  Mo  Mo14  1  5.46442000  3.62266000  1.80686000  1
  Mo  Mo15  1  3.63516000  5.45139000  1.82886000  1
