# generated using pymatgen
data_Mo
_symmetry_space_group_name_H-M   'P 1'
_cell_length_a   7.27806742
_cell_length_b   7.27806742
_cell_length_c   3.63903379
_cell_angle_alpha   90.00000000
_cell_angle_beta   90.00000000
_cell_angle_gamma   90.00000000
_symmetry_Int_Tables_number   1
_chemical_formula_structural   Mo
_chemical_formula_sum   Mo16
_cell_volume   192.76058556
_cell_formula_units_Z   16
loop_
 _symmetry_equiv_pos_site_id
 _symmetry_equiv_pos_as_xyz
  1  'x, y, z'
loop_
 _atom_site_type_symbol
 _atom_site_label
 _atom_site_symmetry_multiplicity
 _atom_site_fract_x
 _atom_site_fract_y
 _atom_site_fract_z
 _atom_site_occupancy
  Mo  Mo0  1  -0.00423253  7.26992000  3.63945000  1
  Mo  Mo1  1  1.84920000  1.82434000  0.04229130  1
  Mo  Mo2  1  1.79226000  7.25911000  1.82618000  1
  Mo  Mo3  1  7.27503000  1.81582000  1.82063000  1
  Mo  Mo4  1  3.63297000  7.25818000  0.01077020  1
  Mo  Mo5  1  5.45667000  1.82879000  -0.02017490  1
  Mo  Mo6  1  5.44172000  0.01492770  1.84543000  1
  Mo  Mo7  1  3.63343000  1.82772000  1.80311000  1
  Mo  Mo8  1  7.25871000  3.63081000  3.62874000  1
  Mo  Mo9  1  1.83556000  5.44590000  3.62728000  1
  Mo  Mo10  1  1.82154000  3.63725000  1.79328000  1
  Mo  Mo11  1  0.02017820  5.47705000  1.79803000  1
  Mo  Mo12  1  3.64703000  3.64935000  3.65001000  1
  Mo  Mo13  1  5.45197000  5.46253000  3.61556000  1
  Mo  Mo14  1  5.46645000  3.63601000  1.84425000  1
  Mo  Mo15  1  3.64552000  5.46435000  1.82622000  1
