# generated using pymatgen
data_Mo
_symmetry_space_group_name_H-M   'P 1'
_cell_length_a   7.27806742
_cell_length_b   7.27806742
_cell_length_c   3.63903379
_cell_angle_alpha   90.00000000
_cell_angle_beta   90.00000000
_cell_angle_gamma   90.00000000
_symmetry_Int_Tables_number   1
_chemical_formula_structural   Mo
_chemical_formula_sum   Mo16
_cell_volume   192.76058556
_cell_formula_units_Z   16
loop_
 _symmetry_equiv_pos_site_id
 _symmetry_equiv_pos_as_xyz
  1  'x, y, z'
loop_
 _atom_site_type_symbol
 _atom_site_label
 _atom_site_symmetry_multiplicity
 _atom_site_fract_x
 _atom_site_fract_y
 _atom_site_fract_z
 _atom_site_occupancy
  Mo  Mo0  1  0.00263535  7.26101000  3.63629000  1
  Mo  Mo1  1  1.84958000  1.83889000  -0.00346484  1
  Mo  Mo2  1  1.83079000  7.28448000  1.81258000  1
  Mo  Mo3  1  7.29523000  1.81508000  1.82727000  1
  Mo  Mo4  1  3.66115000  7.27634000  0.01139150  1
  Mo  Mo5  1  5.43097000  1.81794000  -0.01002520  1
  Mo  Mo6  1  5.47861000  -0.02205860  1.83602000  1
  Mo  Mo7  1  3.62144000  1.83071000  1.82551000  1
  Mo  Mo8  1  7.25416000  3.63270000  3.63695000  1
  Mo  Mo9  1  1.80776000  5.45071000  3.63891000  1
  Mo  Mo10  1  1.81356000  3.63696000  1.82371000  1
  Mo  Mo11  1  -0.00383535  5.46303000  1.81999000  1
  Mo  Mo12  1  3.64192000  3.63362000  3.63625000  1
  Mo  Mo13  1  5.42966000  5.46890000  3.61816000  1
  Mo  Mo14  1  5.47245000  3.64777000  1.81263000  1
  Mo  Mo15  1  3.63792000  5.46598000  1.82885000  1
