# generated using pymatgen
data_Mo
_symmetry_space_group_name_H-M   'P 1'
_cell_length_a   7.27806742
_cell_length_b   7.27806742
_cell_length_c   3.63903379
_cell_angle_alpha   90.00000000
_cell_angle_beta   90.00000000
_cell_angle_gamma   90.00000000
_symmetry_Int_Tables_number   1
_chemical_formula_structural   Mo
_chemical_formula_sum   Mo16
_cell_volume   192.76058556
_cell_formula_units_Z   16
loop_
 _symmetry_equiv_pos_site_id
 _symmetry_equiv_pos_as_xyz
  1  'x, y, z'
loop_
 _atom_site_type_symbol
 _atom_site_label
 _atom_site_symmetry_multiplicity
 _atom_site_fract_x
 _atom_site_fract_y
 _atom_site_fract_z
 _atom_site_occupancy
  Mo  Mo0  1  0.00207978  7.26183000  3.64251000  1
  Mo  Mo1  1  1.82964000  1.83917000  -0.00438485  1
  Mo  Mo2  1  1.83749000  7.28525000  1.82566000  1
  Mo  Mo3  1  7.27639000  1.81144000  1.81865000  1
  Mo  Mo4  1  3.66295000  7.25031000  -0.01185240  1
  Mo  Mo5  1  5.45148000  1.83739000  -0.02752320  1
  Mo  Mo6  1  5.47902000  0.00977786  1.81041000  1
  Mo  Mo7  1  3.63741000  1.81705000  1.82363000  1
  Mo  Mo8  1  7.27322000  3.64815000  3.65362000  1
  Mo  Mo9  1  1.81054000  5.46203000  3.65248000  1
  Mo  Mo10  1  1.81472000  3.61798000  1.83188000  1
  Mo  Mo11  1  -0.00493879  5.45557000  1.82635000  1
  Mo  Mo12  1  3.62430000  3.65458000  3.62303000  1
  Mo  Mo13  1  5.43548000  5.45429000  3.63047000  1
  Mo  Mo14  1  5.45114000  3.63276000  1.82418000  1
  Mo  Mo15  1  3.64308000  5.46449000  1.83192000  1
