# generated using pymatgen
data_Mo
_symmetry_space_group_name_H-M   'P 1'
_cell_length_a   7.27806742
_cell_length_b   7.27806742
_cell_length_c   3.63903379
_cell_angle_alpha   90.00000000
_cell_angle_beta   90.00000000
_cell_angle_gamma   90.00000000
_symmetry_Int_Tables_number   1
_chemical_formula_structural   Mo
_chemical_formula_sum   Mo16
_cell_volume   192.76058556
_cell_formula_units_Z   16
loop_
 _symmetry_equiv_pos_site_id
 _symmetry_equiv_pos_as_xyz
  1  'x, y, z'
loop_
 _atom_site_type_symbol
 _atom_site_label
 _atom_site_symmetry_multiplicity
 _atom_site_fract_x
 _atom_site_fract_y
 _atom_site_fract_z
 _atom_site_occupancy
  Mo  Mo0  1  0.01233610  7.28082000  3.66194000  1
  Mo  Mo1  1  1.78559000  1.80394000  -0.02993670  1
  Mo  Mo2  1  1.83308000  7.26960000  1.80146000  1
  Mo  Mo3  1  7.25288000  1.82158000  1.80970000  1
  Mo  Mo4  1  3.61403000  7.26661000  0.00937498  1
  Mo  Mo5  1  5.45532000  1.83058000  0.02729330  1
  Mo  Mo6  1  5.44062000  -0.00177884  1.81938000  1
  Mo  Mo7  1  3.66069000  1.82844000  1.85200000  1
  Mo  Mo8  1  7.29219000  3.63437000  3.64213000  1
  Mo  Mo9  1  1.81325000  5.45777000  3.63515000  1
  Mo  Mo10  1  1.85995000  3.65458000  1.83618000  1
  Mo  Mo11  1  -0.00037559  5.46060000  1.80329000  1
  Mo  Mo12  1  3.64594000  3.63560000  3.61744000  1
  Mo  Mo13  1  5.45949000  5.47454000  3.62625000  1
  Mo  Mo14  1  5.46005000  3.63324000  1.81094000  1
  Mo  Mo15  1  3.63897000  5.45158000  1.82843000  1
