# generated using pymatgen
data_Mo
_symmetry_space_group_name_H-M   'P 1'
_cell_length_a   7.27806742
_cell_length_b   7.27806742
_cell_length_c   3.63903379
_cell_angle_alpha   90.00000000
_cell_angle_beta   90.00000000
_cell_angle_gamma   90.00000000
_symmetry_Int_Tables_number   1
_chemical_formula_structural   Mo
_chemical_formula_sum   Mo16
_cell_volume   192.76058556
_cell_formula_units_Z   16
loop_
 _symmetry_equiv_pos_site_id
 _symmetry_equiv_pos_as_xyz
  1  'x, y, z'
loop_
 _atom_site_type_symbol
 _atom_site_label
 _atom_site_symmetry_multiplicity
 _atom_site_fract_x
 _atom_site_fract_y
 _atom_site_fract_z
 _atom_site_occupancy
  Mo  Mo0  1  -0.00856535  7.27528000  3.61734000  1
  Mo  Mo1  1  1.79452000  1.82454000  0.02021650  1
  Mo  Mo2  1  1.82071000  7.27659000  1.82046000  1
  Mo  Mo3  1  7.26046000  1.82898000  1.84984000  1
  Mo  Mo4  1  3.64337000  7.26458000  -0.02047390  1
  Mo  Mo5  1  5.46680000  1.82667000  -0.04019410  1
  Mo  Mo6  1  5.46438000  0.02520760  1.81239000  1
  Mo  Mo7  1  3.62951000  1.80276000  1.78764000  1
  Mo  Mo8  1  7.28965000  3.64364000  3.65096000  1
  Mo  Mo9  1  1.81079000  5.46935000  3.64034000  1
  Mo  Mo10  1  1.82824000  3.62100000  1.80408000  1
  Mo  Mo11  1  0.02072630  5.45995000  1.85184000  1
  Mo  Mo12  1  3.64344000  3.64329000  3.66154000  1
  Mo  Mo13  1  5.44194000  5.45023000  3.63950000  1
  Mo  Mo14  1  5.48285000  3.62561000  1.82992000  1
  Mo  Mo15  1  3.63518000  5.46440000  1.82564000  1
