# generated using pymatgen
data_Mo
_symmetry_space_group_name_H-M   'P 1'
_cell_length_a   7.27806742
_cell_length_b   7.27806742
_cell_length_c   3.63903379
_cell_angle_alpha   90.00000000
_cell_angle_beta   90.00000000
_cell_angle_gamma   90.00000000
_symmetry_Int_Tables_number   1
_chemical_formula_structural   Mo
_chemical_formula_sum   Mo16
_cell_volume   192.76058556
_cell_formula_units_Z   16
loop_
 _symmetry_equiv_pos_site_id
 _symmetry_equiv_pos_as_xyz
  1  'x, y, z'
loop_
 _atom_site_type_symbol
 _atom_site_label
 _atom_site_symmetry_multiplicity
 _atom_site_fract_x
 _atom_site_fract_y
 _atom_site_fract_z
 _atom_site_occupancy
  Mo  Mo0  1  -0.00525235  7.30597000  3.64906000  1
  Mo  Mo1  1  1.80335000  1.81216000  -0.00845126  1
  Mo  Mo2  1  1.83606000  7.25175000  1.82424000  1
  Mo  Mo3  1  7.26801000  1.81724000  1.84072000  1
  Mo  Mo4  1  3.62048000  7.27478000  -0.01314550  1
  Mo  Mo5  1  5.43196000  1.81766000  0.00046036  1
  Mo  Mo6  1  5.45330000  0.00524205  1.77689000  1
  Mo  Mo7  1  3.64617000  1.81464000  1.82012000  1
  Mo  Mo8  1  7.29284000  3.62996000  3.64425000  1
  Mo  Mo9  1  1.82972000  5.44666000  3.63072000  1
  Mo  Mo10  1  1.83019000  3.66371000  1.84473000  1
  Mo  Mo11  1  -0.00306594  5.44646000  1.80765000  1
  Mo  Mo12  1  3.66769000  3.65072000  3.63175000  1
  Mo  Mo13  1  5.45430000  5.47202000  3.67104000  1
  Mo  Mo14  1  5.47261000  3.64549000  1.79661000  1
  Mo  Mo15  1  3.62564000  5.44761000  1.83439000  1
