# generated using pymatgen
data_Mo
_symmetry_space_group_name_H-M   'P 1'
_cell_length_a   7.27806742
_cell_length_b   7.27806742
_cell_length_c   3.63903379
_cell_angle_alpha   90.00000000
_cell_angle_beta   90.00000000
_cell_angle_gamma   90.00000000
_symmetry_Int_Tables_number   1
_chemical_formula_structural   Mo
_chemical_formula_sum   Mo16
_cell_volume   192.76058556
_cell_formula_units_Z   16
loop_
 _symmetry_equiv_pos_site_id
 _symmetry_equiv_pos_as_xyz
  1  'x, y, z'
loop_
 _atom_site_type_symbol
 _atom_site_label
 _atom_site_symmetry_multiplicity
 _atom_site_fract_x
 _atom_site_fract_y
 _atom_site_fract_z
 _atom_site_occupancy
  Mo  Mo0  1  -0.01543280  7.28240000  3.61837000  1
  Mo  Mo1  1  1.83314000  1.82675000  0.00085081  1
  Mo  Mo2  1  1.80601000  7.26931000  1.81892000  1
  Mo  Mo3  1  7.27155000  1.81882000  1.81842000  1
  Mo  Mo4  1  3.63334000  7.26182000  -0.01366800  1
  Mo  Mo5  1  5.45948000  1.81457000  0.00534343  1
  Mo  Mo6  1  5.44454000  0.02135230  1.82421000  1
  Mo  Mo7  1  3.63427000  1.80566000  1.79717000  1
  Mo  Mo8  1  7.26793000  3.65342000  3.64545000  1
  Mo  Mo9  1  1.85396000  5.45231000  3.66194000  1
  Mo  Mo10  1  1.80684000  3.63166000  1.81534000  1
  Mo  Mo11  1  0.02591220  5.46552000  1.84409000  1
  Mo  Mo12  1  3.66363000  3.65893000  3.65787000  1
  Mo  Mo13  1  5.45178000  5.44665000  3.63626000  1
  Mo  Mo14  1  5.46060000  3.63749000  1.82238000  1
  Mo  Mo15  1  3.62645000  5.45540000  1.79809000  1
