# generated using pymatgen
data_Mo
_symmetry_space_group_name_H-M   'P 1'
_cell_length_a   7.27808089
_cell_length_b   7.27808089
_cell_length_c   3.63904047
_cell_angle_alpha   90.00000000
_cell_angle_beta   90.00000000
_cell_angle_gamma   90.00000000
_symmetry_Int_Tables_number   1
_chemical_formula_structural   Mo
_chemical_formula_sum   Mo16
_cell_volume   192.76165285
_cell_formula_units_Z   16
loop_
 _symmetry_equiv_pos_site_id
 _symmetry_equiv_pos_as_xyz
  1  'x, y, z'
loop_
 _atom_site_type_symbol
 _atom_site_label
 _atom_site_symmetry_multiplicity
 _atom_site_fract_x
 _atom_site_fract_y
 _atom_site_fract_z
 _atom_site_occupancy
  Mo  Mo0  1  -0.01350650  7.28703000  0.00162718  1
  Mo  Mo1  1  1.82697000  1.81753000  0.00154834  1
  Mo  Mo2  1  1.82022000  7.27887000  1.81772000  1
  Mo  Mo3  1  7.27404000  1.82237000  1.82885000  1
  Mo  Mo4  1  3.63221000  7.27635000  3.63149000  1
  Mo  Mo5  1  5.46182000  1.81845000  0.01123590  1
  Mo  Mo6  1  5.47543000  0.00523860  1.82705000  1
  Mo  Mo7  1  3.64915000  1.81269000  1.82854000  1
  Mo  Mo8  1  7.28602000  3.64379000  3.64831000  1
  Mo  Mo9  1  1.81807000  5.46377000  3.63954000  1
  Mo  Mo10  1  1.80753000  3.63412000  1.82065000  1
  Mo  Mo11  1  7.27113000  5.45412000  1.81937000  1
  Mo  Mo12  1  3.65387000  3.64949000  -0.00323200  1
  Mo  Mo13  1  5.44988000  5.45900000  3.63353000  1
  Mo  Mo14  1  5.45289000  3.62034000  1.80222000  1
  Mo  Mo15  1  3.63635000  5.45894000  1.80354000  1
