# generated using pymatgen
data_Mo
_symmetry_space_group_name_H-M   'P 1'
_cell_length_a   7.27808089
_cell_length_b   7.27808089
_cell_length_c   3.63904047
_cell_angle_alpha   90.00000000
_cell_angle_beta   90.00000000
_cell_angle_gamma   90.00000000
_symmetry_Int_Tables_number   1
_chemical_formula_structural   Mo
_chemical_formula_sum   Mo16
_cell_volume   192.76165285
_cell_formula_units_Z   16
loop_
 _symmetry_equiv_pos_site_id
 _symmetry_equiv_pos_as_xyz
  1  'x, y, z'
loop_
 _atom_site_type_symbol
 _atom_site_label
 _atom_site_symmetry_multiplicity
 _atom_site_fract_x
 _atom_site_fract_y
 _atom_site_fract_z
 _atom_site_occupancy
  Mo  Mo0  1  -0.00895585  7.28234000  0.00232679  1
  Mo  Mo1  1  1.82028000  1.83474000  -0.00811374  1
  Mo  Mo2  1  1.82979000  7.28694000  1.81536000  1
  Mo  Mo3  1  7.28345000  1.81201000  1.81784000  1
  Mo  Mo4  1  3.63292000  7.27420000  3.63818000  1
  Mo  Mo5  1  5.46727000  1.82142000  -0.00038923  1
  Mo  Mo6  1  5.46231000  -0.01028060  1.81779000  1
  Mo  Mo7  1  3.64385000  1.81317000  1.82326000  1
  Mo  Mo8  1  7.27541000  3.62905000  3.63698000  1
  Mo  Mo9  1  1.81616000  5.46435000  3.64374000  1
  Mo  Mo10  1  1.81226000  3.65177000  1.82522000  1
  Mo  Mo11  1  7.27542000  5.45051000  1.81293000  1
  Mo  Mo12  1  3.63916000  3.63378000  0.01362720  1
  Mo  Mo13  1  5.46201000  5.45964000  3.63764000  1
  Mo  Mo14  1  5.44654000  3.64751000  1.81513000  1
  Mo  Mo15  1  3.64422000  5.45094000  1.82049000  1
