# generated using pymatgen
data_Mo
_symmetry_space_group_name_H-M   'P 1'
_cell_length_a   7.27806742
_cell_length_b   7.27806742
_cell_length_c   3.63903379
_cell_angle_alpha   90.00000000
_cell_angle_beta   90.00000000
_cell_angle_gamma   90.00000000
_symmetry_Int_Tables_number   1
_chemical_formula_structural   Mo
_chemical_formula_sum   Mo16
_cell_volume   192.76058556
_cell_formula_units_Z   16
loop_
 _symmetry_equiv_pos_site_id
 _symmetry_equiv_pos_as_xyz
  1  'x, y, z'
loop_
 _atom_site_type_symbol
 _atom_site_label
 _atom_site_symmetry_multiplicity
 _atom_site_fract_x
 _atom_site_fract_y
 _atom_site_fract_z
 _atom_site_occupancy
  Mo  Mo0  1  0.00902171  7.26097000  3.62814000  1
  Mo  Mo1  1  1.79435000  1.82214000  0.01543600  1
  Mo  Mo2  1  1.82490000  7.28133000  1.81224000  1
  Mo  Mo3  1  7.26601000  1.81321000  1.81158000  1
  Mo  Mo4  1  3.63173000  7.26877000  0.02366730  1
  Mo  Mo5  1  5.46186000  1.82459000  0.00498984  1
  Mo  Mo6  1  5.47941000  0.02954480  1.86231000  1
  Mo  Mo7  1  3.65699000  1.80013000  1.81334000  1
  Mo  Mo8  1  7.28673000  3.64722000  3.64289000  1
  Mo  Mo9  1  1.81832000  5.47748000  3.63539000  1
  Mo  Mo10  1  1.82421000  3.63953000  1.79638000  1
  Mo  Mo11  1  -0.00003299  5.46711000  1.82203000  1
  Mo  Mo12  1  3.62981000  3.65270000  3.65274000  1
  Mo  Mo13  1  5.45553000  5.43543000  3.61917000  1
  Mo  Mo14  1  5.45808000  3.62808000  1.79595000  1
  Mo  Mo15  1  3.62709000  5.45383000  1.81477000  1
