# generated using pymatgen
data_Mo
_symmetry_space_group_name_H-M   'P 1'
_cell_length_a   7.27788804
_cell_length_b   7.27788804
_cell_length_c   3.63894391
_cell_angle_alpha   90.00000000
_cell_angle_beta   90.00000000
_cell_angle_gamma   90.00000000
_symmetry_Int_Tables_number   1
_chemical_formula_structural   Mo
_chemical_formula_sum   Mo16
_cell_volume   192.74632321
_cell_formula_units_Z   16
loop_
 _symmetry_equiv_pos_site_id
 _symmetry_equiv_pos_as_xyz
  1  'x, y, z'
loop_
 _atom_site_type_symbol
 _atom_site_label
 _atom_site_symmetry_multiplicity
 _atom_site_fract_x
 _atom_site_fract_y
 _atom_site_fract_z
 _atom_site_occupancy
  Mo  Mo0  1  -0.05822650  0.00659985  0.03891250  1
  Mo  Mo1  1  1.81462000  1.81720000  3.64043000  1
  Mo  Mo2  1  1.80345000  0.00568137  1.88151000  1
  Mo  Mo3  1  0.02087480  1.80121000  1.81178000  1
  Mo  Mo4  1  3.66533000  -0.01832900  3.62665000  1
  Mo  Mo5  1  5.44594000  1.81903000  -0.01804370  1
  Mo  Mo6  1  5.44140000  7.25030000  1.79972000  1
  Mo  Mo7  1  3.62136000  1.83981000  1.81135000  1
  Mo  Mo8  1  0.01930110  3.63647000  -0.01432990  1
  Mo  Mo9  1  1.81635000  5.50263000  0.00495634  1
  Mo  Mo10  1  1.81830000  3.62578000  1.82210000  1
  Mo  Mo11  1  7.28563000  5.44249000  1.81907000  1
  Mo  Mo12  1  3.66962000  3.63291000  3.61712000  1
  Mo  Mo13  1  5.46714000  5.48158000  -0.01620040  1
  Mo  Mo14  1  5.47300000  3.64705000  1.80426000  1
  Mo  Mo15  1  3.64201000  5.45568000  1.84376000  1
