# generated using pymatgen
data_Mo
_symmetry_space_group_name_H-M   'P 1'
_cell_length_a   7.27788804
_cell_length_b   7.27788804
_cell_length_c   3.63894391
_cell_angle_alpha   90.00000000
_cell_angle_beta   90.00000000
_cell_angle_gamma   90.00000000
_symmetry_Int_Tables_number   1
_chemical_formula_structural   Mo
_chemical_formula_sum   Mo16
_cell_volume   192.74632321
_cell_formula_units_Z   16
loop_
 _symmetry_equiv_pos_site_id
 _symmetry_equiv_pos_as_xyz
  1  'x, y, z'
loop_
 _atom_site_type_symbol
 _atom_site_label
 _atom_site_symmetry_multiplicity
 _atom_site_fract_x
 _atom_site_fract_y
 _atom_site_fract_z
 _atom_site_occupancy
  Mo  Mo0  1  -0.00439916  0.01657680  -0.00132275  1
  Mo  Mo1  1  1.83322000  1.85406000  3.67539000  1
  Mo  Mo2  1  1.81223000  -0.01661710  1.85857000  1
  Mo  Mo3  1  -0.01481010  1.77517000  1.81403000  1
  Mo  Mo4  1  3.61232000  -0.05015300  3.65695000  1
  Mo  Mo5  1  5.48834000  1.86652000  -0.03516300  1
  Mo  Mo6  1  5.43626000  7.27745000  1.80149000  1
  Mo  Mo7  1  3.64012000  1.78827000  1.84575000  1
  Mo  Mo8  1  0.04623250  3.66664000  0.02649540  1
  Mo  Mo9  1  1.82772000  5.46339000  0.01833800  1
  Mo  Mo10  1  1.76939000  3.62779000  1.79300000  1
  Mo  Mo11  1  7.25366000  5.47281000  1.80569000  1
  Mo  Mo12  1  3.63931000  3.63293000  3.62302000  1
  Mo  Mo13  1  5.45061000  5.46032000  -0.02789020  1
  Mo  Mo14  1  5.48573000  3.65319000  1.80300000  1
  Mo  Mo15  1  3.67018000  5.45776000  1.81572000  1
