# generated using pymatgen
data_Mo
_symmetry_space_group_name_H-M   'P 1'
_cell_length_a   7.27788804
_cell_length_b   7.27788804
_cell_length_c   3.63894391
_cell_angle_alpha   90.00000000
_cell_angle_beta   90.00000000
_cell_angle_gamma   90.00000000
_symmetry_Int_Tables_number   1
_chemical_formula_structural   Mo
_chemical_formula_sum   Mo16
_cell_volume   192.74632321
_cell_formula_units_Z   16
loop_
 _symmetry_equiv_pos_site_id
 _symmetry_equiv_pos_as_xyz
  1  'x, y, z'
loop_
 _atom_site_type_symbol
 _atom_site_label
 _atom_site_symmetry_multiplicity
 _atom_site_fract_x
 _atom_site_fract_y
 _atom_site_fract_z
 _atom_site_occupancy
  Mo  Mo0  1  -0.01090300  0.04168250  0.02082210  1
  Mo  Mo1  1  1.81275000  1.81245000  3.64356000  1
  Mo  Mo2  1  1.83630000  -0.01043210  1.86105000  1
  Mo  Mo3  1  0.01302280  1.84819000  1.75756000  1
  Mo  Mo4  1  3.63558000  -0.02971380  3.60089000  1
  Mo  Mo5  1  5.46549000  1.81099000  -0.00213187  1
  Mo  Mo6  1  5.49727000  7.27409000  1.78986000  1
  Mo  Mo7  1  3.62969000  1.84151000  1.80986000  1
  Mo  Mo8  1  -0.03231660  3.64404000  0.00402523  1
  Mo  Mo9  1  1.82604000  5.44811000  0.00329551  1
  Mo  Mo10  1  1.82087000  3.59658000  1.84348000  1
  Mo  Mo11  1  7.25356000  5.44203000  1.78280000  1
  Mo  Mo12  1  3.64584000  3.62077000  3.66195000  1
  Mo  Mo13  1  5.45233000  5.48388000  -0.00701696  1
  Mo  Mo14  1  5.46228000  3.64243000  1.85265000  1
  Mo  Mo15  1  3.63831000  5.47951000  1.85041000  1
