# generated using pymatgen
data_Mo
_symmetry_space_group_name_H-M   'P 1'
_cell_length_a   7.27788804
_cell_length_b   7.27788804
_cell_length_c   3.63894391
_cell_angle_alpha   90.00000000
_cell_angle_beta   90.00000000
_cell_angle_gamma   90.00000000
_symmetry_Int_Tables_number   1
_chemical_formula_structural   Mo
_chemical_formula_sum   Mo16
_cell_volume   192.74632321
_cell_formula_units_Z   16
loop_
 _symmetry_equiv_pos_site_id
 _symmetry_equiv_pos_as_xyz
  1  'x, y, z'
loop_
 _atom_site_type_symbol
 _atom_site_label
 _atom_site_symmetry_multiplicity
 _atom_site_fract_x
 _atom_site_fract_y
 _atom_site_fract_z
 _atom_site_occupancy
  Mo  Mo0  1  -0.00833854  -0.00674187  -0.02955520  1
  Mo  Mo1  1  1.84472000  1.82400000  3.64775000  1
  Mo  Mo2  1  1.83665000  0.01467850  1.83838000  1
  Mo  Mo3  1  -0.00701240  1.81160000  1.82691000  1
  Mo  Mo4  1  3.63701000  -0.01602280  3.65342000  1
  Mo  Mo5  1  5.43964000  1.82445000  0.00622792  1
  Mo  Mo6  1  5.47855000  7.30873000  1.84238000  1
  Mo  Mo7  1  3.66140000  1.84613000  1.84710000  1
  Mo  Mo8  1  0.00925450  3.66625000  0.01173210  1
  Mo  Mo9  1  1.79149000  5.44026000  -0.01860550  1
  Mo  Mo10  1  1.82197000  3.61247000  1.78416000  1
  Mo  Mo11  1  7.28288000  5.50153000  1.80206000  1
  Mo  Mo12  1  3.63544000  3.61918000  3.62386000  1
  Mo  Mo13  1  5.42217000  5.41873000  -0.01708750  1
  Mo  Mo14  1  5.46467000  3.60936000  1.85735000  1
  Mo  Mo15  1  3.63562000  5.47152000  1.79698000  1
