# generated using pymatgen
data_Mo
_symmetry_space_group_name_H-M   'P 1'
_cell_length_a   7.27788804
_cell_length_b   7.27788804
_cell_length_c   3.63894391
_cell_angle_alpha   90.00000000
_cell_angle_beta   90.00000000
_cell_angle_gamma   90.00000000
_symmetry_Int_Tables_number   1
_chemical_formula_structural   Mo
_chemical_formula_sum   Mo16
_cell_volume   192.74632321
_cell_formula_units_Z   16
loop_
 _symmetry_equiv_pos_site_id
 _symmetry_equiv_pos_as_xyz
  1  'x, y, z'
loop_
 _atom_site_type_symbol
 _atom_site_label
 _atom_site_symmetry_multiplicity
 _atom_site_fract_x
 _atom_site_fract_y
 _atom_site_fract_z
 _atom_site_occupancy
  Mo  Mo0  1  -0.00374982  0.01907660  0.00235609  1
  Mo  Mo1  1  1.82830000  1.78739000  3.63053000  1
  Mo  Mo2  1  1.81692000  -0.00391470  1.83711000  1
  Mo  Mo3  1  0.00620572  1.82918000  1.81552000  1
  Mo  Mo4  1  3.65635000  0.01844720  3.62945000  1
  Mo  Mo5  1  5.46203000  1.81462000  -0.01939520  1
  Mo  Mo6  1  5.45165000  7.25053000  1.79634000  1
  Mo  Mo7  1  3.61610000  1.84312000  1.81137000  1
  Mo  Mo8  1  -0.00538960  3.62266000  -0.03376540  1
  Mo  Mo9  1  1.78938000  5.46606000  0.02624130  1
  Mo  Mo10  1  1.84154000  3.64090000  1.81091000  1
  Mo  Mo11  1  7.29803000  5.48002000  1.80874000  1
  Mo  Mo12  1  3.61413000  3.60206000  3.67822000  1
  Mo  Mo13  1  5.47227000  5.46926000  0.00826486  1
  Mo  Mo14  1  5.48020000  3.63029000  1.84996000  1
  Mo  Mo15  1  3.62213000  5.47641000  1.82121000  1
