# generated using pymatgen
data_Mo
_symmetry_space_group_name_H-M   'P 1'
_cell_length_a   7.27788804
_cell_length_b   7.27788804
_cell_length_c   3.63894391
_cell_angle_alpha   90.00000000
_cell_angle_beta   90.00000000
_cell_angle_gamma   90.00000000
_symmetry_Int_Tables_number   1
_chemical_formula_structural   Mo
_chemical_formula_sum   Mo16
_cell_volume   192.74632321
_cell_formula_units_Z   16
loop_
 _symmetry_equiv_pos_site_id
 _symmetry_equiv_pos_as_xyz
  1  'x, y, z'
loop_
 _atom_site_type_symbol
 _atom_site_label
 _atom_site_symmetry_multiplicity
 _atom_site_fract_x
 _atom_site_fract_y
 _atom_site_fract_z
 _atom_site_occupancy
  Mo  Mo0  1  -0.01994890  -0.01679020  -0.00673173  1
  Mo  Mo1  1  1.77843000  1.77424000  3.62632000  1
  Mo  Mo2  1  1.83009000  -0.00385212  1.84359000  1
  Mo  Mo3  1  0.03566360  1.85301000  1.82349000  1
  Mo  Mo4  1  3.65827000  -0.00073990  3.65482000  1
  Mo  Mo5  1  5.45198000  1.78982000  0.00807419  1
  Mo  Mo6  1  5.43297000  7.26117000  1.80630000  1
  Mo  Mo7  1  3.62520000  1.83925000  1.80413000  1
  Mo  Mo8  1  -0.01267570  3.64088000  -0.03873650  1
  Mo  Mo9  1  1.81060000  5.44879000  0.02708860  1
  Mo  Mo10  1  1.82662000  3.65770000  1.87014000  1
  Mo  Mo11  1  7.28054000  5.49241000  1.82691000  1
  Mo  Mo12  1  3.64399000  3.66580000  3.62929000  1
  Mo  Mo13  1  5.46641000  5.45665000  -0.02610080  1
  Mo  Mo14  1  5.50758000  3.65219000  1.79071000  1
  Mo  Mo15  1  3.63041000  5.43559000  1.83378000  1
