# generated using pymatgen
data_Mo
_symmetry_space_group_name_H-M   'P 1'
_cell_length_a   7.27788804
_cell_length_b   7.27788804
_cell_length_c   3.63894391
_cell_angle_alpha   90.00000000
_cell_angle_beta   90.00000000
_cell_angle_gamma   90.00000000
_symmetry_Int_Tables_number   1
_chemical_formula_structural   Mo
_chemical_formula_sum   Mo16
_cell_volume   192.74632321
_cell_formula_units_Z   16
loop_
 _symmetry_equiv_pos_site_id
 _symmetry_equiv_pos_as_xyz
  1  'x, y, z'
loop_
 _atom_site_type_symbol
 _atom_site_label
 _atom_site_symmetry_multiplicity
 _atom_site_fract_x
 _atom_site_fract_y
 _atom_site_fract_z
 _atom_site_occupancy
  Mo  Mo0  1  0.01758200  0.02001930  -0.02615020  1
  Mo  Mo1  1  1.80514000  1.82509000  3.63587000  1
  Mo  Mo2  1  1.79975000  0.00382858  1.81907000  1
  Mo  Mo3  1  -0.00554131  1.83274000  1.85565000  1
  Mo  Mo4  1  3.64042000  0.02027030  3.66447000  1
  Mo  Mo5  1  5.48281000  1.82422000  -0.03691500  1
  Mo  Mo6  1  5.43304000  7.28660000  1.78488000  1
  Mo  Mo7  1  3.64010000  1.77070000  1.81534000  1
  Mo  Mo8  1  -0.00693085  3.59642000  -0.01500890  1
  Mo  Mo9  1  1.81494000  5.43655000  0.04045480  1
  Mo  Mo10  1  1.82277000  3.65627000  1.80382000  1
  Mo  Mo11  1  7.27722000  5.45474000  1.86333000  1
  Mo  Mo12  1  3.65533000  3.63948000  3.64859000  1
  Mo  Mo13  1  5.46137000  5.47216000  -0.00049045  1
  Mo  Mo14  1  5.45256000  3.65920000  1.80149000  1
  Mo  Mo15  1  3.65555000  5.44781000  1.81867000  1
