# generated using pymatgen
data_Mo
_symmetry_space_group_name_H-M   'P 1'
_cell_length_a   7.27788804
_cell_length_b   7.27788804
_cell_length_c   3.63894391
_cell_angle_alpha   90.00000000
_cell_angle_beta   90.00000000
_cell_angle_gamma   90.00000000
_symmetry_Int_Tables_number   1
_chemical_formula_structural   Mo
_chemical_formula_sum   Mo16
_cell_volume   192.74632321
_cell_formula_units_Z   16
loop_
 _symmetry_equiv_pos_site_id
 _symmetry_equiv_pos_as_xyz
  1  'x, y, z'
loop_
 _atom_site_type_symbol
 _atom_site_label
 _atom_site_symmetry_multiplicity
 _atom_site_fract_x
 _atom_site_fract_y
 _atom_site_fract_z
 _atom_site_occupancy
  Mo  Mo0  1  0.02981820  0.03113630  -0.04225120  1
  Mo  Mo1  1  1.82181000  1.78390000  3.63829000  1
  Mo  Mo2  1  1.85106000  -0.02815100  1.76087000  1
  Mo  Mo3  1  -0.02771520  1.81849000  1.83419000  1
  Mo  Mo4  1  3.65274000  0.01674620  3.66403000  1
  Mo  Mo5  1  5.47980000  1.83805000  0.01893060  1
  Mo  Mo6  1  5.46823000  7.26784000  1.84563000  1
  Mo  Mo7  1  3.65274000  1.81226000  1.82519000  1
  Mo  Mo8  1  -0.02064740  3.61150000  0.02432960  1
  Mo  Mo9  1  1.79563000  5.45532000  -0.00950327  1
  Mo  Mo10  1  1.81841000  3.65622000  1.82616000  1
  Mo  Mo11  1  7.27936000  5.50087000  1.80495000  1
  Mo  Mo12  1  3.58756000  3.61384000  3.64361000  1
  Mo  Mo13  1  5.47027000  5.44978000  0.01725160  1
  Mo  Mo14  1  5.46069000  3.63982000  1.83513000  1
  Mo  Mo15  1  3.62638000  5.47850000  1.78624000  1
