# generated using pymatgen
data_Mo
_symmetry_space_group_name_H-M   'P 1'
_cell_length_a   7.27808089
_cell_length_b   7.27808089
_cell_length_c   3.63904047
_cell_angle_alpha   90.00000000
_cell_angle_beta   90.00000000
_cell_angle_gamma   90.00000000
_symmetry_Int_Tables_number   1
_chemical_formula_structural   Mo
_chemical_formula_sum   Mo16
_cell_volume   192.76165285
_cell_formula_units_Z   16
loop_
 _symmetry_equiv_pos_site_id
 _symmetry_equiv_pos_as_xyz
  1  'x, y, z'
loop_
 _atom_site_type_symbol
 _atom_site_label
 _atom_site_symmetry_multiplicity
 _atom_site_fract_x
 _atom_site_fract_y
 _atom_site_fract_z
 _atom_site_occupancy
  Mo  Mo0  1  0.00667150  7.27090000  -0.00434971  1
  Mo  Mo1  1  1.81596000  1.82818000  -0.00487433  1
  Mo  Mo2  1  1.82150000  7.27498000  1.80743000  1
  Mo  Mo3  1  7.27692000  1.81151000  1.80715000  1
  Mo  Mo4  1  3.65077000  7.28791000  3.63936000  1
  Mo  Mo5  1  5.45914000  1.82148000  0.00158389  1
  Mo  Mo6  1  5.44719000  -0.00741975  1.82068000  1
  Mo  Mo7  1  3.63293000  1.81881000  1.81868000  1
  Mo  Mo8  1  7.26571000  3.64799000  3.63104000  1
  Mo  Mo9  1  1.81573000  5.45865000  3.64327000  1
  Mo  Mo10  1  1.82622000  3.63740000  1.82812000  1
  Mo  Mo11  1  7.28669000  5.46071000  1.82298000  1
  Mo  Mo12  1  3.63311000  3.64460000  0.00948000  1
  Mo  Mo13  1  5.46582000  5.45777000  3.63533000  1
  Mo  Mo14  1  5.45826000  3.63979000  1.81786000  1
  Mo  Mo15  1  3.63945000  5.44880000  1.83824000  1
