# generated using pymatgen
data_Mo
_symmetry_space_group_name_H-M   'P 1'
_cell_length_a   7.27788804
_cell_length_b   7.27788804
_cell_length_c   3.63894391
_cell_angle_alpha   90.00000000
_cell_angle_beta   90.00000000
_cell_angle_gamma   90.00000000
_symmetry_Int_Tables_number   1
_chemical_formula_structural   Mo
_chemical_formula_sum   Mo16
_cell_volume   192.74632321
_cell_formula_units_Z   16
loop_
 _symmetry_equiv_pos_site_id
 _symmetry_equiv_pos_as_xyz
  1  'x, y, z'
loop_
 _atom_site_type_symbol
 _atom_site_label
 _atom_site_symmetry_multiplicity
 _atom_site_fract_x
 _atom_site_fract_y
 _atom_site_fract_z
 _atom_site_occupancy
  Mo  Mo0  1  -0.03417220  0.02393680  0.03831820  1
  Mo  Mo1  1  1.85093000  1.80149000  3.64080000  1
  Mo  Mo2  1  1.81337000  0.02638280  1.83057000  1
  Mo  Mo3  1  0.02843570  1.86074000  1.81202000  1
  Mo  Mo4  1  3.64178000  0.00650048  3.61034000  1
  Mo  Mo5  1  5.47096000  1.76904000  -0.02400480  1
  Mo  Mo6  1  5.46013000  7.27701000  1.80563000  1
  Mo  Mo7  1  3.63721000  1.82054000  1.81037000  1
  Mo  Mo8  1  -0.00265019  3.63737000  -0.00485984  1
  Mo  Mo9  1  1.83716000  5.43465000  0.01727150  1
  Mo  Mo10  1  1.80681000  3.62061000  1.81522000  1
  Mo  Mo11  1  7.23779000  5.47355000  1.85455000  1
  Mo  Mo12  1  3.67007000  3.62742000  3.66617000  1
  Mo  Mo13  1  5.45473000  5.46285000  -0.00984385  1
  Mo  Mo14  1  5.46556000  3.64017000  1.78723000  1
  Mo  Mo15  1  3.60801000  5.46387000  1.82327000  1
