# generated using pymatgen
data_Mo
_symmetry_space_group_name_H-M   'P 1'
_cell_length_a   7.27788804
_cell_length_b   7.27788804
_cell_length_c   3.63894391
_cell_angle_alpha   90.00000000
_cell_angle_beta   90.00000000
_cell_angle_gamma   90.00000000
_symmetry_Int_Tables_number   1
_chemical_formula_structural   Mo
_chemical_formula_sum   Mo16
_cell_volume   192.74632321
_cell_formula_units_Z   16
loop_
 _symmetry_equiv_pos_site_id
 _symmetry_equiv_pos_as_xyz
  1  'x, y, z'
loop_
 _atom_site_type_symbol
 _atom_site_label
 _atom_site_symmetry_multiplicity
 _atom_site_fract_x
 _atom_site_fract_y
 _atom_site_fract_z
 _atom_site_occupancy
  Mo  Mo0  1  -0.01620510  0.01475320  -0.00019679  1
  Mo  Mo1  1  1.81112000  1.79099000  3.63998000  1
  Mo  Mo2  1  1.78701000  0.03137750  1.83745000  1
  Mo  Mo3  1  0.02505650  1.83029000  1.81954000  1
  Mo  Mo4  1  3.64886000  -0.01989300  3.66799000  1
  Mo  Mo5  1  5.45257000  1.80364000  -0.03088490  1
  Mo  Mo6  1  5.43461000  7.25011000  1.84587000  1
  Mo  Mo7  1  3.60034000  1.85819000  1.81222000  1
  Mo  Mo8  1  0.01129900  3.63063000  -0.00102357  1
  Mo  Mo9  1  1.81496000  5.46937000  0.02288950  1
  Mo  Mo10  1  1.84702000  3.62041000  1.84858000  1
  Mo  Mo11  1  7.30740000  5.45136000  1.82857000  1
  Mo  Mo12  1  3.64360000  3.64494000  3.59793000  1
  Mo  Mo13  1  5.44293000  5.46844000  -0.00524458  1
  Mo  Mo14  1  5.49938000  3.61911000  1.78787000  1
  Mo  Mo15  1  3.63618000  5.48240000  1.80152000  1
