# generated using pymatgen
data_Mo
_symmetry_space_group_name_H-M   'P 1'
_cell_length_a   7.27788804
_cell_length_b   7.27788804
_cell_length_c   3.63894391
_cell_angle_alpha   90.00000000
_cell_angle_beta   90.00000000
_cell_angle_gamma   90.00000000
_symmetry_Int_Tables_number   1
_chemical_formula_structural   Mo
_chemical_formula_sum   Mo16
_cell_volume   192.74632321
_cell_formula_units_Z   16
loop_
 _symmetry_equiv_pos_site_id
 _symmetry_equiv_pos_as_xyz
  1  'x, y, z'
loop_
 _atom_site_type_symbol
 _atom_site_label
 _atom_site_symmetry_multiplicity
 _atom_site_fract_x
 _atom_site_fract_y
 _atom_site_fract_z
 _atom_site_occupancy
  Mo  Mo0  1  -0.01596290  -0.00052892  0.01903270  1
  Mo  Mo1  1  1.82000000  1.83932000  3.64673000  1
  Mo  Mo2  1  1.80782000  0.03330740  1.84803000  1
  Mo  Mo3  1  0.00947608  1.78681000  1.79600000  1
  Mo  Mo4  1  3.60191000  0.01274660  3.63374000  1
  Mo  Mo5  1  5.45397000  1.81771000  -0.01421460  1
  Mo  Mo6  1  5.45384000  7.29050000  1.79633000  1
  Mo  Mo7  1  3.63886000  1.78271000  1.81478000  1
  Mo  Mo8  1  0.06333180  3.62946000  -0.00968829  1
  Mo  Mo9  1  1.82498000  5.47414000  0.02040190  1
  Mo  Mo10  1  1.81088000  3.61659000  1.80962000  1
  Mo  Mo11  1  7.26001000  5.46415000  1.83539000  1
  Mo  Mo12  1  3.63228000  3.65269000  3.64417000  1
  Mo  Mo13  1  5.47731000  5.44276000  -0.00923328  1
  Mo  Mo14  1  5.45992000  3.65492000  1.79291000  1
  Mo  Mo15  1  3.64748000  5.44884000  1.84905000  1
