# generated using pymatgen
data_Mo
_symmetry_space_group_name_H-M   'P 1'
_cell_length_a   7.27788804
_cell_length_b   7.27788804
_cell_length_c   3.63894391
_cell_angle_alpha   90.00000000
_cell_angle_beta   90.00000000
_cell_angle_gamma   90.00000000
_symmetry_Int_Tables_number   1
_chemical_formula_structural   Mo
_chemical_formula_sum   Mo16
_cell_volume   192.74632321
_cell_formula_units_Z   16
loop_
 _symmetry_equiv_pos_site_id
 _symmetry_equiv_pos_as_xyz
  1  'x, y, z'
loop_
 _atom_site_type_symbol
 _atom_site_label
 _atom_site_symmetry_multiplicity
 _atom_site_fract_x
 _atom_site_fract_y
 _atom_site_fract_z
 _atom_site_occupancy
  Mo  Mo0  1  0.02608510  0.03500950  0.01765590  1
  Mo  Mo1  1  1.80137000  1.81862000  3.64262000  1
  Mo  Mo2  1  1.82872000  -0.01671790  1.81241000  1
  Mo  Mo3  1  0.01739470  1.82968000  1.81019000  1
  Mo  Mo4  1  3.66430000  -0.00001017  3.62984000  1
  Mo  Mo5  1  5.45898000  1.83523000  0.00315529  1
  Mo  Mo6  1  5.44580000  7.27067000  1.79185000  1
  Mo  Mo7  1  3.64760000  1.79692000  1.84086000  1
  Mo  Mo8  1  -0.00679829  3.65000000  -0.02342310  1
  Mo  Mo9  1  1.81713000  5.43417000  -0.03109260  1
  Mo  Mo10  1  1.81075000  3.64493000  1.83963000  1
  Mo  Mo11  1  7.26718000  5.43326000  1.80152000  1
  Mo  Mo12  1  3.64802000  3.64075000  3.68421000  1
  Mo  Mo13  1  5.43699000  5.46467000  -0.01066360  1
  Mo  Mo14  1  5.44502000  3.65492000  1.81071000  1
  Mo  Mo15  1  3.63758000  5.45401000  1.85359000  1
