# generated using pymatgen
data_Mo
_symmetry_space_group_name_H-M   'P 1'
_cell_length_a   7.27788804
_cell_length_b   7.27788804
_cell_length_c   3.63894391
_cell_angle_alpha   90.00000000
_cell_angle_beta   90.00000000
_cell_angle_gamma   90.00000000
_symmetry_Int_Tables_number   1
_chemical_formula_structural   Mo
_chemical_formula_sum   Mo16
_cell_volume   192.74632321
_cell_formula_units_Z   16
loop_
 _symmetry_equiv_pos_site_id
 _symmetry_equiv_pos_as_xyz
  1  'x, y, z'
loop_
 _atom_site_type_symbol
 _atom_site_label
 _atom_site_symmetry_multiplicity
 _atom_site_fract_x
 _atom_site_fract_y
 _atom_site_fract_z
 _atom_site_occupancy
  Mo  Mo0  1  -0.02376830  -0.02777440  -0.04941530  1
  Mo  Mo1  1  1.80174000  1.82463000  3.62581000  1
  Mo  Mo2  1  1.83343000  -0.00774323  1.80119000  1
  Mo  Mo3  1  0.04065950  1.86916000  1.83112000  1
  Mo  Mo4  1  3.63731000  0.02595480  3.65037000  1
  Mo  Mo5  1  5.43647000  1.76589000  0.03151280  1
  Mo  Mo6  1  5.48844000  7.25707000  1.82764000  1
  Mo  Mo7  1  3.59547000  1.84194000  1.80686000  1
  Mo  Mo8  1  -0.00761194  3.62740000  0.02435620  1
  Mo  Mo9  1  1.84741000  5.44078000  -0.03312100  1
  Mo  Mo10  1  1.80953000  3.63251000  1.81956000  1
  Mo  Mo11  1  7.28599000  5.45030000  1.80798000  1
  Mo  Mo12  1  3.65867000  3.67483000  3.63316000  1
  Mo  Mo13  1  5.46267000  5.45828000  0.01614970  1
  Mo  Mo14  1  5.46687000  3.65404000  1.85622000  1
  Mo  Mo15  1  3.61283000  5.45885000  1.82366000  1
