# generated using pymatgen
data_Mo
_symmetry_space_group_name_H-M   'P 1'
_cell_length_a   7.27788804
_cell_length_b   7.27788804
_cell_length_c   3.63894391
_cell_angle_alpha   90.00000000
_cell_angle_beta   90.00000000
_cell_angle_gamma   90.00000000
_symmetry_Int_Tables_number   1
_chemical_formula_structural   Mo
_chemical_formula_sum   Mo16
_cell_volume   192.74632321
_cell_formula_units_Z   16
loop_
 _symmetry_equiv_pos_site_id
 _symmetry_equiv_pos_as_xyz
  1  'x, y, z'
loop_
 _atom_site_type_symbol
 _atom_site_label
 _atom_site_symmetry_multiplicity
 _atom_site_fract_x
 _atom_site_fract_y
 _atom_site_fract_z
 _atom_site_occupancy
  Mo  Mo0  1  -0.01469730  -0.05593730  -0.01622840  1
  Mo  Mo1  1  1.83975000  1.84394000  3.63584000  1
  Mo  Mo2  1  1.79183000  0.03183090  1.80469000  1
  Mo  Mo3  1  -0.02855100  1.81484000  1.83347000  1
  Mo  Mo4  1  3.62937000  -0.00676896  3.64236000  1
  Mo  Mo5  1  5.44855000  1.84038000  -0.00746975  1
  Mo  Mo6  1  5.47416000  7.31348000  1.83604000  1
  Mo  Mo7  1  3.64105000  1.82408000  1.78096000  1
  Mo  Mo8  1  -0.01174310  3.64396000  0.00771645  1
  Mo  Mo9  1  1.83500000  5.43293000  0.04416830  1
  Mo  Mo10  1  1.83161000  3.61964000  1.82576000  1
  Mo  Mo11  1  7.28038000  5.47943000  1.84653000  1
  Mo  Mo12  1  3.63969000  3.65157000  3.62528000  1
  Mo  Mo13  1  5.46796000  5.43624000  0.01912460  1
  Mo  Mo14  1  5.46136000  3.61114000  1.80378000  1
  Mo  Mo15  1  3.66040000  5.46534000  1.79104000  1
