# generated using pymatgen
data_Mo
_symmetry_space_group_name_H-M   'P 1'
_cell_length_a   7.27788804
_cell_length_b   7.27788804
_cell_length_c   3.63894391
_cell_angle_alpha   90.00000000
_cell_angle_beta   90.00000000
_cell_angle_gamma   90.00000000
_symmetry_Int_Tables_number   1
_chemical_formula_structural   Mo
_chemical_formula_sum   Mo16
_cell_volume   192.74632321
_cell_formula_units_Z   16
loop_
 _symmetry_equiv_pos_site_id
 _symmetry_equiv_pos_as_xyz
  1  'x, y, z'
loop_
 _atom_site_type_symbol
 _atom_site_label
 _atom_site_symmetry_multiplicity
 _atom_site_fract_x
 _atom_site_fract_y
 _atom_site_fract_z
 _atom_site_occupancy
  Mo  Mo0  1  -0.00518171  -0.01217830  0.01904250  1
  Mo  Mo1  1  1.84056000  1.84762000  3.62705000  1
  Mo  Mo2  1  1.82375000  -0.02070110  1.78919000  1
  Mo  Mo3  1  -0.02539940  1.75570000  1.80209000  1
  Mo  Mo4  1  3.62399000  -0.01423030  3.62107000  1
  Mo  Mo5  1  5.47555000  1.82904000  -0.01506960  1
  Mo  Mo6  1  5.45896000  7.26605000  1.84562000  1
  Mo  Mo7  1  3.62211000  1.84003000  1.80915000  1
  Mo  Mo8  1  0.02450670  3.66117000  0.01429620  1
  Mo  Mo9  1  1.81962000  5.49307000  0.04684770  1
  Mo  Mo10  1  1.78310000  3.65789000  1.81279000  1
  Mo  Mo11  1  7.27800000  5.44188000  1.80467000  1
  Mo  Mo12  1  3.63442000  3.63463000  3.67251000  1
  Mo  Mo13  1  5.47506000  5.46370000  -0.00990276  1
  Mo  Mo14  1  5.45816000  3.64903000  1.79185000  1
  Mo  Mo15  1  3.65892000  5.45342000  1.84185000  1
