# generated using pymatgen
data_Mo
_symmetry_space_group_name_H-M   'P 1'
_cell_length_a   7.27788804
_cell_length_b   7.27788804
_cell_length_c   3.63894391
_cell_angle_alpha   90.00000000
_cell_angle_beta   90.00000000
_cell_angle_gamma   90.00000000
_symmetry_Int_Tables_number   1
_chemical_formula_structural   Mo
_chemical_formula_sum   Mo16
_cell_volume   192.74632321
_cell_formula_units_Z   16
loop_
 _symmetry_equiv_pos_site_id
 _symmetry_equiv_pos_as_xyz
  1  'x, y, z'
loop_
 _atom_site_type_symbol
 _atom_site_label
 _atom_site_symmetry_multiplicity
 _atom_site_fract_x
 _atom_site_fract_y
 _atom_site_fract_z
 _atom_site_occupancy
  Mo  Mo0  1  0.01051130  0.02919440  0.01092700  1
  Mo  Mo1  1  1.82784000  1.82779000  3.65549000  1
  Mo  Mo2  1  1.83371000  0.01182830  1.82158000  1
  Mo  Mo3  1  -0.02303220  1.79450000  1.81191000  1
  Mo  Mo4  1  3.64419000  -0.02504880  3.66719000  1
  Mo  Mo5  1  5.46924000  1.86262000  -0.00545109  1
  Mo  Mo6  1  5.45028000  7.25703000  1.82680000  1
  Mo  Mo7  1  3.63813000  1.82603000  1.81348000  1
  Mo  Mo8  1  0.02223490  3.68169000  0.03282670  1
  Mo  Mo9  1  1.81064000  5.42328000  0.01087790  1
  Mo  Mo10  1  1.84013000  3.63431000  1.84477000  1
  Mo  Mo11  1  7.24683000  5.44383000  1.79435000  1
  Mo  Mo12  1  3.58352000  3.62435000  3.59770000  1
  Mo  Mo13  1  5.44594000  5.44311000  0.00101098  1
  Mo  Mo14  1  5.47775000  3.65351000  1.79188000  1
  Mo  Mo15  1  3.66820000  5.45809000  1.79770000  1
