# generated using pymatgen
data_Mo
_symmetry_space_group_name_H-M   'P 1'
_cell_length_a   7.27788804
_cell_length_b   7.27788804
_cell_length_c   3.63894391
_cell_angle_alpha   90.00000000
_cell_angle_beta   90.00000000
_cell_angle_gamma   90.00000000
_symmetry_Int_Tables_number   1
_chemical_formula_structural   Mo
_chemical_formula_sum   Mo16
_cell_volume   192.74632321
_cell_formula_units_Z   16
loop_
 _symmetry_equiv_pos_site_id
 _symmetry_equiv_pos_as_xyz
  1  'x, y, z'
loop_
 _atom_site_type_symbol
 _atom_site_label
 _atom_site_symmetry_multiplicity
 _atom_site_fract_x
 _atom_site_fract_y
 _atom_site_fract_z
 _atom_site_occupancy
  Mo  Mo0  1  0.02558580  0.02590550  -0.04217090  1
  Mo  Mo1  1  1.79496000  1.81587000  3.64871000  1
  Mo  Mo2  1  1.83544000  -0.00267756  1.82529000  1
  Mo  Mo3  1  0.03741500  1.81603000  1.77303000  1
  Mo  Mo4  1  3.62301000  -0.01819620  3.64065000  1
  Mo  Mo5  1  5.46302000  1.79874000  0.00465418  1
  Mo  Mo6  1  5.47969000  7.29714000  1.82661000  1
  Mo  Mo7  1  3.64110000  1.78726000  1.83954000  1
  Mo  Mo8  1  0.00359325  3.65348000  0.03306850  1
  Mo  Mo9  1  1.81326000  5.43934000  0.00501477  1
  Mo  Mo10  1  1.79386000  3.61704000  1.84091000  1
  Mo  Mo11  1  7.27872000  5.46419000  1.78013000  1
  Mo  Mo12  1  3.64442000  3.64310000  3.63047000  1
  Mo  Mo13  1  5.43359000  5.45399000  -0.01184240  1
  Mo  Mo14  1  5.42734000  3.66621000  1.84859000  1
  Mo  Mo15  1  3.65111000  5.48869000  1.83040000  1
