# generated using pymatgen
data_Mo
_symmetry_space_group_name_H-M   'P 1'
_cell_length_a   7.27788804
_cell_length_b   7.27788804
_cell_length_c   3.63894391
_cell_angle_alpha   90.00000000
_cell_angle_beta   90.00000000
_cell_angle_gamma   90.00000000
_symmetry_Int_Tables_number   1
_chemical_formula_structural   Mo
_chemical_formula_sum   Mo16
_cell_volume   192.74632321
_cell_formula_units_Z   16
loop_
 _symmetry_equiv_pos_site_id
 _symmetry_equiv_pos_as_xyz
  1  'x, y, z'
loop_
 _atom_site_type_symbol
 _atom_site_label
 _atom_site_symmetry_multiplicity
 _atom_site_fract_x
 _atom_site_fract_y
 _atom_site_fract_z
 _atom_site_occupancy
  Mo  Mo0  1  -0.00571323  0.03615170  -0.00605328  1
  Mo  Mo1  1  1.82324000  1.82050000  3.63968000  1
  Mo  Mo2  1  1.84248000  -0.03542760  1.80151000  1
  Mo  Mo3  1  -0.00389348  1.83110000  1.77325000  1
  Mo  Mo4  1  3.64909000  0.01352470  3.64041000  1
  Mo  Mo5  1  5.45306000  1.80819000  0.03631030  1
  Mo  Mo6  1  5.49244000  7.24555000  1.85216000  1
  Mo  Mo7  1  3.64162000  1.85947000  1.82808000  1
  Mo  Mo8  1  -0.04123680  3.64468000  0.03897020  1
  Mo  Mo9  1  1.80009000  5.44866000  -0.04077620  1
  Mo  Mo10  1  1.84450000  3.65070000  1.85773000  1
  Mo  Mo11  1  7.26285000  5.43583000  1.77640000  1
  Mo  Mo12  1  3.63818000  3.59346000  3.62319000  1
  Mo  Mo13  1  5.47857000  5.46873000  0.00330122  1
  Mo  Mo14  1  5.43948000  3.64807000  1.83009000  1
  Mo  Mo15  1  3.63136000  5.47693000  1.81879000  1
