# generated using pymatgen
data_Mo
_symmetry_space_group_name_H-M   'P 1'
_cell_length_a   7.27808089
_cell_length_b   7.27808089
_cell_length_c   3.63904047
_cell_angle_alpha   90.00000000
_cell_angle_beta   90.00000000
_cell_angle_gamma   90.00000000
_symmetry_Int_Tables_number   1
_chemical_formula_structural   Mo
_chemical_formula_sum   Mo16
_cell_volume   192.76165285
_cell_formula_units_Z   16
loop_
 _symmetry_equiv_pos_site_id
 _symmetry_equiv_pos_as_xyz
  1  'x, y, z'
loop_
 _atom_site_type_symbol
 _atom_site_label
 _atom_site_symmetry_multiplicity
 _atom_site_fract_x
 _atom_site_fract_y
 _atom_site_fract_z
 _atom_site_occupancy
  Mo  Mo0  1  -0.01015440  7.27115000  -0.01467030  1
  Mo  Mo1  1  1.81192000  1.82374000  -0.00183394  1
  Mo  Mo2  1  1.83305000  7.28179000  1.83576000  1
  Mo  Mo3  1  7.27732000  1.83028000  1.80184000  1
  Mo  Mo4  1  3.64050000  7.27432000  3.63616000  1
  Mo  Mo5  1  5.45976000  1.81280000  -0.00436868  1
  Mo  Mo6  1  5.46824000  -0.00455268  1.81931000  1
  Mo  Mo7  1  3.62467000  1.82339000  1.80916000  1
  Mo  Mo8  1  7.28007000  3.63307000  3.64733000  1
  Mo  Mo9  1  1.81351000  5.45659000  3.63784000  1
  Mo  Mo10  1  1.82223000  3.63879000  1.80738000  1
  Mo  Mo11  1  7.27836000  5.45921000  1.81682000  1
  Mo  Mo12  1  3.64435000  3.64177000  0.01474680  1
  Mo  Mo13  1  5.46553000  5.45701000  3.64338000  1
  Mo  Mo14  1  5.44878000  3.64425000  1.82191000  1
  Mo  Mo15  1  3.64393000  5.45849000  1.84124000  1
