# generated using pymatgen
data_Mo
_symmetry_space_group_name_H-M   'P 1'
_cell_length_a   7.27788804
_cell_length_b   7.27788804
_cell_length_c   3.63894391
_cell_angle_alpha   90.00000000
_cell_angle_beta   90.00000000
_cell_angle_gamma   90.00000000
_symmetry_Int_Tables_number   1
_chemical_formula_structural   Mo
_chemical_formula_sum   Mo16
_cell_volume   192.74632321
_cell_formula_units_Z   16
loop_
 _symmetry_equiv_pos_site_id
 _symmetry_equiv_pos_as_xyz
  1  'x, y, z'
loop_
 _atom_site_type_symbol
 _atom_site_label
 _atom_site_symmetry_multiplicity
 _atom_site_fract_x
 _atom_site_fract_y
 _atom_site_fract_z
 _atom_site_occupancy
  Mo  Mo0  1  0.01591830  -0.04994400  -0.02485610  1
  Mo  Mo1  1  1.84560000  1.82072000  3.66693000  1
  Mo  Mo2  1  1.78886000  0.00458422  1.85475000  1
  Mo  Mo3  1  -0.00661858  1.80133000  1.81279000  1
  Mo  Mo4  1  3.63294000  -0.02063600  3.67951000  1
  Mo  Mo5  1  5.44753000  1.87353000  -0.00379216  1
  Mo  Mo6  1  5.45235000  7.29790000  1.74751000  1
  Mo  Mo7  1  3.64590000  1.78329000  1.82308000  1
  Mo  Mo8  1  0.00617170  3.65751000  -0.01260210  1
  Mo  Mo9  1  1.85672000  5.44609000  -0.00028346  1
  Mo  Mo10  1  1.82552000  3.61822000  1.83269000  1
  Mo  Mo11  1  7.27311000  5.51180000  1.84113000  1
  Mo  Mo12  1  3.60334000  3.65619000  3.62797000  1
  Mo  Mo13  1  5.47408000  5.46831000  0.00379034  1
  Mo  Mo14  1  5.46788000  3.62808000  1.80944000  1
  Mo  Mo15  1  3.61682000  5.44913000  1.81500000  1
