# generated using pymatgen
data_Mo
_symmetry_space_group_name_H-M   'P 1'
_cell_length_a   7.27788804
_cell_length_b   7.27788804
_cell_length_c   3.63894391
_cell_angle_alpha   90.00000000
_cell_angle_beta   90.00000000
_cell_angle_gamma   90.00000000
_symmetry_Int_Tables_number   1
_chemical_formula_structural   Mo
_chemical_formula_sum   Mo16
_cell_volume   192.74632321
_cell_formula_units_Z   16
loop_
 _symmetry_equiv_pos_site_id
 _symmetry_equiv_pos_as_xyz
  1  'x, y, z'
loop_
 _atom_site_type_symbol
 _atom_site_label
 _atom_site_symmetry_multiplicity
 _atom_site_fract_x
 _atom_site_fract_y
 _atom_site_fract_z
 _atom_site_occupancy
  Mo  Mo0  1  -0.01372980  0.03341210  0.06071310  1
  Mo  Mo1  1  1.79282000  1.82805000  3.61995000  1
  Mo  Mo2  1  1.81923000  -0.00326914  1.80387000  1
  Mo  Mo3  1  -0.00194755  1.82071000  1.82381000  1
  Mo  Mo4  1  3.64308000  0.03089200  3.60520000  1
  Mo  Mo5  1  5.45666000  1.80179000  0.00286512  1
  Mo  Mo6  1  5.46060000  7.24166000  1.85420000  1
  Mo  Mo7  1  3.63763000  1.85544000  1.81387000  1
  Mo  Mo8  1  -0.00044778  3.62423000  0.00665868  1
  Mo  Mo9  1  1.81712000  5.48443000  -0.03496820  1
  Mo  Mo10  1  1.83646000  3.64695000  1.82619000  1
  Mo  Mo11  1  7.26531000  5.41451000  1.82189000  1
  Mo  Mo12  1  3.66876000  3.62447000  3.62459000  1
  Mo  Mo13  1  5.46414000  5.45411000  -0.00144463  1
  Mo  Mo14  1  5.45458000  3.63803000  1.80626000  1
  Mo  Mo15  1  3.64584000  5.45069000  1.83940000  1
