# generated using pymatgen
data_Mo
_symmetry_space_group_name_H-M   'P 1'
_cell_length_a   7.27788804
_cell_length_b   7.27788804
_cell_length_c   3.63894391
_cell_angle_alpha   90.00000000
_cell_angle_beta   90.00000000
_cell_angle_gamma   90.00000000
_symmetry_Int_Tables_number   1
_chemical_formula_structural   Mo
_chemical_formula_sum   Mo16
_cell_volume   192.74632321
_cell_formula_units_Z   16
loop_
 _symmetry_equiv_pos_site_id
 _symmetry_equiv_pos_as_xyz
  1  'x, y, z'
loop_
 _atom_site_type_symbol
 _atom_site_label
 _atom_site_symmetry_multiplicity
 _atom_site_fract_x
 _atom_site_fract_y
 _atom_site_fract_z
 _atom_site_occupancy
  Mo  Mo0  1  0.00372824  0.02226410  0.01432400  1
  Mo  Mo1  1  1.79782000  1.80617000  3.64976000  1
  Mo  Mo2  1  1.83241000  -0.04904320  1.83199000  1
  Mo  Mo3  1  0.01280850  1.82553000  1.79485000  1
  Mo  Mo4  1  3.61680000  0.02068600  3.59639000  1
  Mo  Mo5  1  5.45452000  1.79005000  -0.03429090  1
  Mo  Mo6  1  5.45999000  7.28824000  1.84064000  1
  Mo  Mo7  1  3.64122000  1.80661000  1.80009000  1
  Mo  Mo8  1  0.01287670  3.63530000  -0.00225900  1
  Mo  Mo9  1  1.80909000  5.44847000  0.03186430  1
  Mo  Mo10  1  1.81702000  3.66303000  1.84771000  1
  Mo  Mo11  1  7.30766000  5.44993000  1.81075000  1
  Mo  Mo12  1  3.65477000  3.61940000  3.64345000  1
  Mo  Mo13  1  5.45760000  5.46635000  0.00076095  1
  Mo  Mo14  1  5.42997000  3.67906000  1.81732000  1
  Mo  Mo15  1  3.63784000  5.47406000  1.82973000  1
