# generated using pymatgen
data_Mo
_symmetry_space_group_name_H-M   'P 1'
_cell_length_a   7.27788804
_cell_length_b   7.27788804
_cell_length_c   3.63894391
_cell_angle_alpha   90.00000000
_cell_angle_beta   90.00000000
_cell_angle_gamma   90.00000000
_symmetry_Int_Tables_number   1
_chemical_formula_structural   Mo
_chemical_formula_sum   Mo16
_cell_volume   192.74632321
_cell_formula_units_Z   16
loop_
 _symmetry_equiv_pos_site_id
 _symmetry_equiv_pos_as_xyz
  1  'x, y, z'
loop_
 _atom_site_type_symbol
 _atom_site_label
 _atom_site_symmetry_multiplicity
 _atom_site_fract_x
 _atom_site_fract_y
 _atom_site_fract_z
 _atom_site_occupancy
  Mo  Mo0  1  0.03866930  0.00534809  -0.02297690  1
  Mo  Mo1  1  1.83597000  1.79798000  3.62524000  1
  Mo  Mo2  1  1.81335000  0.01677850  1.81771000  1
  Mo  Mo3  1  0.00344119  1.81207000  1.79034000  1
  Mo  Mo4  1  3.66747000  -0.03004480  3.63575000  1
  Mo  Mo5  1  5.42681000  1.83248000  0.00886147  1
  Mo  Mo6  1  5.47408000  7.28663000  1.81823000  1
  Mo  Mo7  1  3.65575000  1.82868000  1.83042000  1
  Mo  Mo8  1  -0.00879089  3.70717000  0.01209370  1
  Mo  Mo9  1  1.79584000  5.41555000  -0.01641520  1
  Mo  Mo10  1  1.81981000  3.62448000  1.85262000  1
  Mo  Mo11  1  7.28168000  5.45108000  1.79223000  1
  Mo  Mo12  1  3.60831000  3.64851000  3.64975000  1
  Mo  Mo13  1  5.43697000  5.44781000  0.00515311  1
  Mo  Mo14  1  5.44756000  3.62573000  1.85321000  1
  Mo  Mo15  1  3.64920000  5.47585000  1.82085000  1
