# generated using pymatgen
data_Mo
_symmetry_space_group_name_H-M   'P 1'
_cell_length_a   7.27788804
_cell_length_b   7.27788804
_cell_length_c   3.63894391
_cell_angle_alpha   90.00000000
_cell_angle_beta   90.00000000
_cell_angle_gamma   90.00000000
_symmetry_Int_Tables_number   1
_chemical_formula_structural   Mo
_chemical_formula_sum   Mo16
_cell_volume   192.74632321
_cell_formula_units_Z   16
loop_
 _symmetry_equiv_pos_site_id
 _symmetry_equiv_pos_as_xyz
  1  'x, y, z'
loop_
 _atom_site_type_symbol
 _atom_site_label
 _atom_site_symmetry_multiplicity
 _atom_site_fract_x
 _atom_site_fract_y
 _atom_site_fract_z
 _atom_site_occupancy
  Mo  Mo0  1  -0.04129970  -0.01325510  0.00696597  1
  Mo  Mo1  1  1.81394000  1.81228000  3.60978000  1
  Mo  Mo2  1  1.81310000  0.02291280  1.78731000  1
  Mo  Mo3  1  0.02211830  1.79619000  1.81771000  1
  Mo  Mo4  1  3.65413000  0.01273140  3.60701000  1
  Mo  Mo5  1  5.46541000  1.78809000  0.02637480  1
  Mo  Mo6  1  5.46932000  7.27614000  1.81313000  1
  Mo  Mo7  1  3.60944000  1.82039000  1.85145000  1
  Mo  Mo8  1  -0.01506550  3.61721000  -0.00561443  1
  Mo  Mo9  1  1.85742000  5.49031000  -0.03580550  1
  Mo  Mo10  1  1.79341000  3.64349000  1.81111000  1
  Mo  Mo11  1  7.28036000  5.43429000  1.83249000  1
  Mo  Mo12  1  3.66730000  3.64361000  3.67430000  1
  Mo  Mo13  1  5.47946000  5.49645000  0.01244700  1
  Mo  Mo14  1  5.44188000  3.64598000  1.83303000  1
  Mo  Mo15  1  3.63517000  5.45928000  1.83137000  1
