# generated using pymatgen
data_Mo
_symmetry_space_group_name_H-M   'P 1'
_cell_length_a   7.27788804
_cell_length_b   7.27788804
_cell_length_c   3.63894391
_cell_angle_alpha   90.00000000
_cell_angle_beta   90.00000000
_cell_angle_gamma   90.00000000
_symmetry_Int_Tables_number   1
_chemical_formula_structural   Mo
_chemical_formula_sum   Mo16
_cell_volume   192.74632321
_cell_formula_units_Z   16
loop_
 _symmetry_equiv_pos_site_id
 _symmetry_equiv_pos_as_xyz
  1  'x, y, z'
loop_
 _atom_site_type_symbol
 _atom_site_label
 _atom_site_symmetry_multiplicity
 _atom_site_fract_x
 _atom_site_fract_y
 _atom_site_fract_z
 _atom_site_occupancy
  Mo  Mo0  1  -0.04558100  -0.02882120  -0.00490105  1
  Mo  Mo1  1  1.82301000  1.82993000  3.65289000  1
  Mo  Mo2  1  1.81733000  -0.01517890  1.84045000  1
  Mo  Mo3  1  0.03141270  1.87006000  1.82651000  1
  Mo  Mo4  1  3.64311000  0.01409940  3.65066000  1
  Mo  Mo5  1  5.44359000  1.82492000  -0.02713240  1
  Mo  Mo6  1  5.44289000  7.27249000  1.82973000  1
  Mo  Mo7  1  3.63846000  1.82933000  1.81826000  1
  Mo  Mo8  1  0.02867170  3.61599000  -0.01205170  1
  Mo  Mo9  1  1.83054000  5.47422000  0.01682920  1
  Mo  Mo10  1  1.80259000  3.63456000  1.83139000  1
  Mo  Mo11  1  7.29147000  5.47243000  1.86456000  1
  Mo  Mo12  1  3.66392000  3.63732000  3.61882000  1
  Mo  Mo13  1  5.46857000  5.43901000  -0.02488950  1
  Mo  Mo14  1  5.45006000  3.65642000  1.76336000  1
  Mo  Mo15  1  3.61609000  5.41934000  1.82856000  1
