# generated using pymatgen
data_Mo
_symmetry_space_group_name_H-M   'P 1'
_cell_length_a   7.27788804
_cell_length_b   7.27788804
_cell_length_c   3.63894391
_cell_angle_alpha   90.00000000
_cell_angle_beta   90.00000000
_cell_angle_gamma   90.00000000
_symmetry_Int_Tables_number   1
_chemical_formula_structural   Mo
_chemical_formula_sum   Mo16
_cell_volume   192.74632321
_cell_formula_units_Z   16
loop_
 _symmetry_equiv_pos_site_id
 _symmetry_equiv_pos_as_xyz
  1  'x, y, z'
loop_
 _atom_site_type_symbol
 _atom_site_label
 _atom_site_symmetry_multiplicity
 _atom_site_fract_x
 _atom_site_fract_y
 _atom_site_fract_z
 _atom_site_occupancy
  Mo  Mo0  1  0.00349672  0.03204920  -0.00000677  1
  Mo  Mo1  1  1.82130000  1.79128000  3.63933000  1
  Mo  Mo2  1  1.82713000  0.00924121  1.80946000  1
  Mo  Mo3  1  0.02472460  1.82978000  1.82289000  1
  Mo  Mo4  1  3.70633000  -0.00733894  3.61966000  1
  Mo  Mo5  1  5.45255000  1.81372000  0.00073279  1
  Mo  Mo6  1  5.45798000  7.26622000  1.85223000  1
  Mo  Mo7  1  3.59455000  1.84849000  1.84133000  1
  Mo  Mo8  1  -0.03518360  3.65606000  -0.01503850  1
  Mo  Mo9  1  1.80219000  5.45109000  -0.00799804  1
  Mo  Mo10  1  1.82334000  3.61261000  1.84144000  1
  Mo  Mo11  1  7.30713000  5.44460000  1.80575000  1
  Mo  Mo12  1  3.62104000  3.61264000  3.63786000  1
  Mo  Mo13  1  5.41920000  5.49259000  -0.01214840  1
  Mo  Mo14  1  5.48313000  3.63632000  1.84876000  1
  Mo  Mo15  1  3.63721000  5.45675000  1.78880000  1
