# generated using pymatgen
data_Mo
_symmetry_space_group_name_H-M   'P 1'
_cell_length_a   7.27788804
_cell_length_b   7.27788804
_cell_length_c   3.63894391
_cell_angle_alpha   90.00000000
_cell_angle_beta   90.00000000
_cell_angle_gamma   90.00000000
_symmetry_Int_Tables_number   1
_chemical_formula_structural   Mo
_chemical_formula_sum   Mo16
_cell_volume   192.74632321
_cell_formula_units_Z   16
loop_
 _symmetry_equiv_pos_site_id
 _symmetry_equiv_pos_as_xyz
  1  'x, y, z'
loop_
 _atom_site_type_symbol
 _atom_site_label
 _atom_site_symmetry_multiplicity
 _atom_site_fract_x
 _atom_site_fract_y
 _atom_site_fract_z
 _atom_site_occupancy
  Mo  Mo0  1  -0.02495780  0.01071820  -0.00578067  1
  Mo  Mo1  1  1.78897000  1.75743000  3.68001000  1
  Mo  Mo2  1  1.83831000  -0.01693630  1.85236000  1
  Mo  Mo3  1  0.03256950  1.86991000  1.82566000  1
  Mo  Mo4  1  3.65786000  -0.00346951  3.66284000  1
  Mo  Mo5  1  5.47098000  1.78902000  0.00332530  1
  Mo  Mo6  1  5.44263000  7.27266000  1.79135000  1
  Mo  Mo7  1  3.63476000  1.84492000  1.82254000  1
  Mo  Mo8  1  -0.02200550  3.64105000  -0.01520870  1
  Mo  Mo9  1  1.79737000  5.45798000  -0.03057060  1
  Mo  Mo10  1  1.83130000  3.65735000  1.81948000  1
  Mo  Mo11  1  7.27362000  5.48572000  1.82175000  1
  Mo  Mo12  1  3.64391000  3.64114000  3.62509000  1
  Mo  Mo13  1  5.45799000  5.46293000  0.00734202  1
  Mo  Mo14  1  5.50502000  3.65689000  1.82587000  1
  Mo  Mo15  1  3.61779000  5.41880000  1.78700000  1
