# generated using pymatgen
data_Mo
_symmetry_space_group_name_H-M   'P 1'
_cell_length_a   7.27788804
_cell_length_b   7.27788804
_cell_length_c   3.63894391
_cell_angle_alpha   90.00000000
_cell_angle_beta   90.00000000
_cell_angle_gamma   90.00000000
_symmetry_Int_Tables_number   1
_chemical_formula_structural   Mo
_chemical_formula_sum   Mo16
_cell_volume   192.74632321
_cell_formula_units_Z   16
loop_
 _symmetry_equiv_pos_site_id
 _symmetry_equiv_pos_as_xyz
  1  'x, y, z'
loop_
 _atom_site_type_symbol
 _atom_site_label
 _atom_site_symmetry_multiplicity
 _atom_site_fract_x
 _atom_site_fract_y
 _atom_site_fract_z
 _atom_site_occupancy
  Mo  Mo0  1  0.00810494  0.01804740  -0.03020140  1
  Mo  Mo1  1  1.81586000  1.79493000  3.61993000  1
  Mo  Mo2  1  1.81855000  0.02192380  1.79671000  1
  Mo  Mo3  1  0.00353399  1.80335000  1.81867000  1
  Mo  Mo4  1  3.67547000  -0.00134030  3.64634000  1
  Mo  Mo5  1  5.45482000  1.82563000  0.00471652  1
  Mo  Mo6  1  5.45206000  7.27288000  1.83952000  1
  Mo  Mo7  1  3.60050000  1.87010000  1.81994000  1
  Mo  Mo8  1  -0.02691290  3.65432000  0.01767590  1
  Mo  Mo9  1  1.81203000  5.46288000  -0.01293300  1
  Mo  Mo10  1  1.84086000  3.63964000  1.82826000  1
  Mo  Mo11  1  7.31835000  5.41545000  1.78600000  1
  Mo  Mo12  1  3.62913000  3.64355000  3.63021000  1
  Mo  Mo13  1  5.43052000  5.45473000  0.01777510  1
  Mo  Mo14  1  5.48428000  3.61338000  1.87276000  1
  Mo  Mo15  1  3.62897000  5.45664000  1.81769000  1
