# generated using pymatgen
data_Mo
_symmetry_space_group_name_H-M   'P 1'
_cell_length_a   7.27788804
_cell_length_b   7.27788804
_cell_length_c   3.63894391
_cell_angle_alpha   90.00000000
_cell_angle_beta   90.00000000
_cell_angle_gamma   90.00000000
_symmetry_Int_Tables_number   1
_chemical_formula_structural   Mo
_chemical_formula_sum   Mo16
_cell_volume   192.74632321
_cell_formula_units_Z   16
loop_
 _symmetry_equiv_pos_site_id
 _symmetry_equiv_pos_as_xyz
  1  'x, y, z'
loop_
 _atom_site_type_symbol
 _atom_site_label
 _atom_site_symmetry_multiplicity
 _atom_site_fract_x
 _atom_site_fract_y
 _atom_site_fract_z
 _atom_site_occupancy
  Mo  Mo0  1  0.00357683  0.01153300  0.04591700  1
  Mo  Mo1  1  1.83189000  1.81117000  3.63626000  1
  Mo  Mo2  1  1.80760000  0.01715290  1.85348000  1
  Mo  Mo3  1  -0.02453700  1.79732000  1.79067000  1
  Mo  Mo4  1  3.63182000  -0.00522905  3.63073000  1
  Mo  Mo5  1  5.45434000  1.84435000  -0.02974060  1
  Mo  Mo6  1  5.43010000  7.27958000  1.81071000  1
  Mo  Mo7  1  3.63307000  1.85064000  1.80784000  1
  Mo  Mo8  1  0.01136890  3.67949000  -0.02499990  1
  Mo  Mo9  1  1.80284000  5.45105000  0.04010420  1
  Mo  Mo10  1  1.85955000  3.65882000  1.82619000  1
  Mo  Mo11  1  7.29782000  5.41784000  1.81334000  1
  Mo  Mo12  1  3.62662000  3.63608000  3.64240000  1
  Mo  Mo13  1  5.44508000  5.43011000  0.00403365  1
  Mo  Mo14  1  5.50132000  3.60772000  1.81367000  1
  Mo  Mo15  1  3.63366000  5.45850000  1.81245000  1
