# generated using pymatgen
data_Mo
_symmetry_space_group_name_H-M   'P 1'
_cell_length_a   7.27808089
_cell_length_b   7.27808089
_cell_length_c   3.63904047
_cell_angle_alpha   90.00000000
_cell_angle_beta   90.00000000
_cell_angle_gamma   90.00000000
_symmetry_Int_Tables_number   1
_chemical_formula_structural   Mo
_chemical_formula_sum   Mo16
_cell_volume   192.76165285
_cell_formula_units_Z   16
loop_
 _symmetry_equiv_pos_site_id
 _symmetry_equiv_pos_as_xyz
  1  'x, y, z'
loop_
 _atom_site_type_symbol
 _atom_site_label
 _atom_site_symmetry_multiplicity
 _atom_site_fract_x
 _atom_site_fract_y
 _atom_site_fract_z
 _atom_site_occupancy
  Mo  Mo0  1  0.01103920  7.28780000  0.00114585  1
  Mo  Mo1  1  1.81547000  1.80773000  0.00196152  1
  Mo  Mo2  1  1.80521000  7.26512000  1.81473000  1
  Mo  Mo3  1  7.26958000  1.82576000  1.82450000  1
  Mo  Mo4  1  3.65066000  7.28669000  3.64861000  1
  Mo  Mo5  1  5.44639000  1.81946000  -0.00502708  1
  Mo  Mo6  1  5.45302000  0.00034623  1.81828000  1
  Mo  Mo7  1  3.64054000  1.82588000  1.82047000  1
  Mo  Mo8  1  7.27578000  3.64202000  3.63360000  1
  Mo  Mo9  1  1.81635000  5.44464000  3.64152000  1
  Mo  Mo10  1  1.83213000  3.63517000  1.82164000  1
  Mo  Mo11  1  7.27075000  5.46002000  1.82357000  1
  Mo  Mo12  1  3.63866000  3.63553000  -0.01704510  1
  Mo  Mo13  1  5.46493000  5.45391000  3.64499000  1
  Mo  Mo14  1  5.46941000  3.64207000  1.82773000  1
  Mo  Mo15  1  3.64218000  5.46992000  1.81133000  1
