# generated using pymatgen
data_Mo
_symmetry_space_group_name_H-M   'P 1'
_cell_length_a   7.27788804
_cell_length_b   7.27788804
_cell_length_c   3.63894391
_cell_angle_alpha   90.00000000
_cell_angle_beta   90.00000000
_cell_angle_gamma   90.00000000
_symmetry_Int_Tables_number   1
_chemical_formula_structural   Mo
_chemical_formula_sum   Mo16
_cell_volume   192.74632321
_cell_formula_units_Z   16
loop_
 _symmetry_equiv_pos_site_id
 _symmetry_equiv_pos_as_xyz
  1  'x, y, z'
loop_
 _atom_site_type_symbol
 _atom_site_label
 _atom_site_symmetry_multiplicity
 _atom_site_fract_x
 _atom_site_fract_y
 _atom_site_fract_z
 _atom_site_occupancy
  Mo  Mo0  1  -0.02848250  -0.04505430  0.02540160  1
  Mo  Mo1  1  1.82859000  1.84489000  3.64644000  1
  Mo  Mo2  1  1.79383000  0.01004000  1.84073000  1
  Mo  Mo3  1  -0.00480706  1.85797000  1.86293000  1
  Mo  Mo4  1  3.62598000  -0.02294900  3.62886000  1
  Mo  Mo5  1  5.45627000  1.81855000  -0.02759670  1
  Mo  Mo6  1  5.44510000  7.28977000  1.80000000  1
  Mo  Mo7  1  3.63405000  1.80561000  1.81049000  1
  Mo  Mo8  1  0.00715269  3.61203000  -0.04117780  1
  Mo  Mo9  1  1.84970000  5.48203000  0.03002110  1
  Mo  Mo10  1  1.82091000  3.63317000  1.77533000  1
  Mo  Mo11  1  7.28338000  5.44319000  1.85410000  1
  Mo  Mo12  1  3.68108000  3.68368000  3.65008000  1
  Mo  Mo13  1  5.44916000  5.46263000  -0.00717528  1
  Mo  Mo14  1  5.46080000  3.63460000  1.80302000  1
  Mo  Mo15  1  3.64338000  5.43595000  1.82162000  1
