# generated using pymatgen
data_Mo
_symmetry_space_group_name_H-M   'P 1'
_cell_length_a   7.27788804
_cell_length_b   7.27788804
_cell_length_c   3.63894391
_cell_angle_alpha   90.00000000
_cell_angle_beta   90.00000000
_cell_angle_gamma   90.00000000
_symmetry_Int_Tables_number   1
_chemical_formula_structural   Mo
_chemical_formula_sum   Mo16
_cell_volume   192.74632321
_cell_formula_units_Z   16
loop_
 _symmetry_equiv_pos_site_id
 _symmetry_equiv_pos_as_xyz
  1  'x, y, z'
loop_
 _atom_site_type_symbol
 _atom_site_label
 _atom_site_symmetry_multiplicity
 _atom_site_fract_x
 _atom_site_fract_y
 _atom_site_fract_z
 _atom_site_occupancy
  Mo  Mo0  1  -0.00826718  -0.00068107  0.03245470  1
  Mo  Mo1  1  1.81409000  1.80956000  3.64777000  1
  Mo  Mo2  1  1.81760000  -0.02084280  1.84905000  1
  Mo  Mo3  1  0.02592080  1.85405000  1.79853000  1
  Mo  Mo4  1  3.61164000  0.01447520  3.61877000  1
  Mo  Mo5  1  5.46604000  1.78208000  -0.01214710  1
  Mo  Mo6  1  5.47921000  7.27207000  1.81166000  1
  Mo  Mo7  1  3.63721000  1.81980000  1.78812000  1
  Mo  Mo8  1  -0.00541510  3.64643000  -0.03081830  1
  Mo  Mo9  1  1.81163000  5.45065000  0.03085760  1
  Mo  Mo10  1  1.84790000  3.65040000  1.82532000  1
  Mo  Mo11  1  7.27002000  5.48364000  1.84313000  1
  Mo  Mo12  1  3.66233000  3.65608000  3.65637000  1
  Mo  Mo13  1  5.44692000  5.43942000  0.00279429  1
  Mo  Mo14  1  5.46815000  3.64537000  1.80681000  1
  Mo  Mo15  1  3.60115000  5.44363000  1.80440000  1
