# generated using pymatgen
data_Mo
_symmetry_space_group_name_H-M   'P 1'
_cell_length_a   7.27788804
_cell_length_b   7.27788804
_cell_length_c   3.63894391
_cell_angle_alpha   90.00000000
_cell_angle_beta   90.00000000
_cell_angle_gamma   90.00000000
_symmetry_Int_Tables_number   1
_chemical_formula_structural   Mo
_chemical_formula_sum   Mo16
_cell_volume   192.74632321
_cell_formula_units_Z   16
loop_
 _symmetry_equiv_pos_site_id
 _symmetry_equiv_pos_as_xyz
  1  'x, y, z'
loop_
 _atom_site_type_symbol
 _atom_site_label
 _atom_site_symmetry_multiplicity
 _atom_site_fract_x
 _atom_site_fract_y
 _atom_site_fract_z
 _atom_site_occupancy
  Mo  Mo0  1  -0.02898990  -0.02118960  -0.02274370  1
  Mo  Mo1  1  1.81641000  1.80221000  3.64571000  1
  Mo  Mo2  1  1.83612000  -0.00396240  1.81433000  1
  Mo  Mo3  1  0.04293590  1.87129000  1.86137000  1
  Mo  Mo4  1  3.68980000  -0.01102600  3.62950000  1
  Mo  Mo5  1  5.45385000  1.81896000  0.01272200  1
  Mo  Mo6  1  5.46719000  7.28207000  1.81932000  1
  Mo  Mo7  1  3.62822000  1.83168000  1.82268000  1
  Mo  Mo8  1  -0.00954361  3.62815000  -0.00211533  1
  Mo  Mo9  1  1.83331000  5.46517000  -0.02528720  1
  Mo  Mo10  1  1.78024000  3.61477000  1.79895000  1
  Mo  Mo11  1  7.28620000  5.47321000  1.83048000  1
  Mo  Mo12  1  3.64485000  3.66407000  3.64241000  1
  Mo  Mo13  1  5.44913000  5.45283000  -0.01372860  1
  Mo  Mo14  1  5.43164000  3.67070000  1.83909000  1
  Mo  Mo15  1  3.62474000  5.40720000  1.82037000  1
