# generated using pymatgen
data_Mo
_symmetry_space_group_name_H-M   'P 1'
_cell_length_a   7.27788804
_cell_length_b   7.27788804
_cell_length_c   3.63894391
_cell_angle_alpha   90.00000000
_cell_angle_beta   90.00000000
_cell_angle_gamma   90.00000000
_symmetry_Int_Tables_number   1
_chemical_formula_structural   Mo
_chemical_formula_sum   Mo16
_cell_volume   192.74632321
_cell_formula_units_Z   16
loop_
 _symmetry_equiv_pos_site_id
 _symmetry_equiv_pos_as_xyz
  1  'x, y, z'
loop_
 _atom_site_type_symbol
 _atom_site_label
 _atom_site_symmetry_multiplicity
 _atom_site_fract_x
 _atom_site_fract_y
 _atom_site_fract_z
 _atom_site_occupancy
  Mo  Mo0  1  0.00761666  -0.00080470  0.01186500  1
  Mo  Mo1  1  1.82267000  1.82899000  3.63258000  1
  Mo  Mo2  1  1.78769000  -0.00798962  1.79372000  1
  Mo  Mo3  1  -0.01648680  1.81994000  1.88093000  1
  Mo  Mo4  1  3.62963000  0.05811110  3.66050000  1
  Mo  Mo5  1  5.47061000  1.79753000  -0.00373366  1
  Mo  Mo6  1  5.43847000  7.25516000  1.83618000  1
  Mo  Mo7  1  3.62900000  1.80645000  1.81153000  1
  Mo  Mo8  1  -0.00849754  3.59513000  -0.02050380  1
  Mo  Mo9  1  1.80393000  5.46943000  -0.00281995  1
  Mo  Mo10  1  1.85658000  3.69408000  1.79799000  1
  Mo  Mo11  1  7.29471000  5.44905000  1.86084000  1
  Mo  Mo12  1  3.65293000  3.61265000  3.62934000  1
  Mo  Mo13  1  5.49060000  5.48231000  0.00962355  1
  Mo  Mo14  1  5.45857000  3.63488000  1.78161000  1
  Mo  Mo15  1  3.62809000  5.45119000  1.79340000  1
