# generated using pymatgen
data_Mo
_symmetry_space_group_name_H-M   'P 1'
_cell_length_a   7.27788804
_cell_length_b   7.27788804
_cell_length_c   3.63894391
_cell_angle_alpha   90.00000000
_cell_angle_beta   90.00000000
_cell_angle_gamma   90.00000000
_symmetry_Int_Tables_number   1
_chemical_formula_structural   Mo
_chemical_formula_sum   Mo16
_cell_volume   192.74632321
_cell_formula_units_Z   16
loop_
 _symmetry_equiv_pos_site_id
 _symmetry_equiv_pos_as_xyz
  1  'x, y, z'
loop_
 _atom_site_type_symbol
 _atom_site_label
 _atom_site_symmetry_multiplicity
 _atom_site_fract_x
 _atom_site_fract_y
 _atom_site_fract_z
 _atom_site_occupancy
  Mo  Mo0  1  -0.00771169  -0.00201318  -0.01832020  1
  Mo  Mo1  1  1.79719000  1.81945000  3.65285000  1
  Mo  Mo2  1  1.85106000  0.01181330  1.83386000  1
  Mo  Mo3  1  -0.02124890  1.82011000  1.79078000  1
  Mo  Mo4  1  3.63697000  0.01647080  3.65893000  1
  Mo  Mo5  1  5.44692000  1.81995000  -0.02459670  1
  Mo  Mo6  1  5.46406000  7.27693000  1.79322000  1
  Mo  Mo7  1  3.63564000  1.84802000  1.78952000  1
  Mo  Mo8  1  -0.00063618  3.60806000  0.01858020  1
  Mo  Mo9  1  1.82550000  5.43550000  0.01344950  1
  Mo  Mo10  1  1.81609000  3.63006000  1.80058000  1
  Mo  Mo11  1  7.26573000  5.47990000  1.83997000  1
  Mo  Mo12  1  3.61496000  3.64066000  3.63864000  1
  Mo  Mo13  1  5.45207000  5.41765000  0.03624360  1
  Mo  Mo14  1  5.49947000  3.63383000  1.84521000  1
  Mo  Mo15  1  3.67008000  5.48972000  1.80415000  1
