# generated using pymatgen
data_Mo
_symmetry_space_group_name_H-M   'P 1'
_cell_length_a   7.27788804
_cell_length_b   7.27788804
_cell_length_c   3.63894391
_cell_angle_alpha   90.00000000
_cell_angle_beta   90.00000000
_cell_angle_gamma   90.00000000
_symmetry_Int_Tables_number   1
_chemical_formula_structural   Mo
_chemical_formula_sum   Mo16
_cell_volume   192.74632321
_cell_formula_units_Z   16
loop_
 _symmetry_equiv_pos_site_id
 _symmetry_equiv_pos_as_xyz
  1  'x, y, z'
loop_
 _atom_site_type_symbol
 _atom_site_label
 _atom_site_symmetry_multiplicity
 _atom_site_fract_x
 _atom_site_fract_y
 _atom_site_fract_z
 _atom_site_occupancy
  Mo  Mo0  1  -0.00449386  -0.00989627  0.00594109  1
  Mo  Mo1  1  1.82025000  1.84076000  3.65189000  1
  Mo  Mo2  1  1.80457000  0.05009320  1.81448000  1
  Mo  Mo3  1  0.00241746  1.83060000  1.85361000  1
  Mo  Mo4  1  3.64437000  -0.00059156  3.64285000  1
  Mo  Mo5  1  5.48305000  1.82102000  0.02737350  1
  Mo  Mo6  1  5.44245000  7.27276000  1.83740000  1
  Mo  Mo7  1  3.64746000  1.80105000  1.81068000  1
  Mo  Mo8  1  -0.01279920  3.61120000  -0.04453100  1
  Mo  Mo9  1  1.82778000  5.45113000  -0.01834910  1
  Mo  Mo10  1  1.81074000  3.64652000  1.78261000  1
  Mo  Mo11  1  7.26404000  5.46370000  1.81512000  1
  Mo  Mo12  1  3.64317000  3.65220000  3.65365000  1
  Mo  Mo13  1  5.44349000  5.42303000  0.02725830  1
  Mo  Mo14  1  5.46938000  3.62826000  1.83013000  1
  Mo  Mo15  1  3.66024000  5.46428000  1.78294000  1
