# generated using pymatgen
data_Mo
_symmetry_space_group_name_H-M   'P 1'
_cell_length_a   7.27788804
_cell_length_b   7.27788804
_cell_length_c   3.63894391
_cell_angle_alpha   90.00000000
_cell_angle_beta   90.00000000
_cell_angle_gamma   90.00000000
_symmetry_Int_Tables_number   1
_chemical_formula_structural   Mo
_chemical_formula_sum   Mo16
_cell_volume   192.74632321
_cell_formula_units_Z   16
loop_
 _symmetry_equiv_pos_site_id
 _symmetry_equiv_pos_as_xyz
  1  'x, y, z'
loop_
 _atom_site_type_symbol
 _atom_site_label
 _atom_site_symmetry_multiplicity
 _atom_site_fract_x
 _atom_site_fract_y
 _atom_site_fract_z
 _atom_site_occupancy
  Mo  Mo0  1  -0.01169180  0.03652380  0.00976623  1
  Mo  Mo1  1  1.82308000  1.78236000  3.67553000  1
  Mo  Mo2  1  1.84204000  -0.04435810  1.83618000  1
  Mo  Mo3  1  0.00762537  1.81602000  1.80795000  1
  Mo  Mo4  1  3.63127000  0.00494720  3.62745000  1
  Mo  Mo5  1  5.45694000  1.79308000  -0.02982640  1
  Mo  Mo6  1  5.47056000  7.26677000  1.83768000  1
  Mo  Mo7  1  3.64290000  1.84213000  1.85054000  1
  Mo  Mo8  1  0.02738870  3.67024000  0.00701448  1
  Mo  Mo9  1  1.77269000  5.47187000  -0.00281164  1
  Mo  Mo10  1  1.83035000  3.65957000  1.80494000  1
  Mo  Mo11  1  7.30470000  5.46123000  1.77226000  1
  Mo  Mo12  1  3.64431000  3.59842000  3.65725000  1
  Mo  Mo13  1  5.44336000  5.46217000  -0.01956940  1
  Mo  Mo14  1  5.43982000  3.67848000  1.81969000  1
  Mo  Mo15  1  3.62076000  5.44666000  1.81904000  1
