# generated using pymatgen
data_Mo
_symmetry_space_group_name_H-M   'P 1'
_cell_length_a   7.27788804
_cell_length_b   7.27788804
_cell_length_c   3.63894391
_cell_angle_alpha   90.00000000
_cell_angle_beta   90.00000000
_cell_angle_gamma   90.00000000
_symmetry_Int_Tables_number   1
_chemical_formula_structural   Mo
_chemical_formula_sum   Mo16
_cell_volume   192.74632321
_cell_formula_units_Z   16
loop_
 _symmetry_equiv_pos_site_id
 _symmetry_equiv_pos_as_xyz
  1  'x, y, z'
loop_
 _atom_site_type_symbol
 _atom_site_label
 _atom_site_symmetry_multiplicity
 _atom_site_fract_x
 _atom_site_fract_y
 _atom_site_fract_z
 _atom_site_occupancy
  Mo  Mo0  1  0.00564106  -0.06593630  -0.03238860  1
  Mo  Mo1  1  1.84694000  1.84927000  3.63614000  1
  Mo  Mo2  1  1.78756000  0.02769740  1.77863000  1
  Mo  Mo3  1  -0.01968240  1.83066000  1.87715000  1
  Mo  Mo4  1  3.64581000  -0.00310292  3.66555000  1
  Mo  Mo5  1  5.43619000  1.81971000  0.00908234  1
  Mo  Mo6  1  5.46685000  7.31815000  1.83891000  1
  Mo  Mo7  1  3.66168000  1.79725000  1.83814000  1
  Mo  Mo8  1  -0.00468573  3.64349000  0.00308725  1
  Mo  Mo9  1  1.82105000  5.45863000  -0.00812048  1
  Mo  Mo10  1  1.80486000  3.64025000  1.78699000  1
  Mo  Mo11  1  7.28598000  5.45217000  1.84905000  1
  Mo  Mo12  1  3.66169000  3.68108000  3.62122000  1
  Mo  Mo13  1  5.45848000  5.44841000  0.00393592  1
  Mo  Mo14  1  5.43993000  3.60902000  1.81074000  1
  Mo  Mo15  1  3.64783000  5.43935000  1.79495000  1
