# generated using pymatgen
data_Mo
_symmetry_space_group_name_H-M   'P 1'
_cell_length_a   7.27788804
_cell_length_b   7.27788804
_cell_length_c   3.63894391
_cell_angle_alpha   90.00000000
_cell_angle_beta   90.00000000
_cell_angle_gamma   90.00000000
_symmetry_Int_Tables_number   1
_chemical_formula_structural   Mo
_chemical_formula_sum   Mo16
_cell_volume   192.74632321
_cell_formula_units_Z   16
loop_
 _symmetry_equiv_pos_site_id
 _symmetry_equiv_pos_as_xyz
  1  'x, y, z'
loop_
 _atom_site_type_symbol
 _atom_site_label
 _atom_site_symmetry_multiplicity
 _atom_site_fract_x
 _atom_site_fract_y
 _atom_site_fract_z
 _atom_site_occupancy
  Mo  Mo0  1  -0.01506870  -0.03617600  -0.02751150  1
  Mo  Mo1  1  1.82439000  1.78993000  3.62985000  1
  Mo  Mo2  1  1.82671000  -0.00044871  1.78636000  1
  Mo  Mo3  1  -0.00293541  1.84271000  1.82858000  1
  Mo  Mo4  1  3.66902000  -0.00329172  3.62456000  1
  Mo  Mo5  1  5.44580000  1.81576000  0.01106240  1
  Mo  Mo6  1  5.46196000  7.30517000  1.82662000  1
  Mo  Mo7  1  3.65991000  1.82526000  1.83095000  1
  Mo  Mo8  1  -0.01413240  3.64395000  -0.01571840  1
  Mo  Mo9  1  1.82399000  5.47376000  -0.00790514  1
  Mo  Mo10  1  1.79241000  3.64456000  1.80637000  1
  Mo  Mo11  1  7.29461000  5.46865000  1.83640000  1
  Mo  Mo12  1  3.64918000  3.68412000  3.67488000  1
  Mo  Mo13  1  5.45591000  5.42583000  0.00362102  1
  Mo  Mo14  1  5.45071000  3.63605000  1.84638000  1
  Mo  Mo15  1  3.62365000  5.43027000  1.81856000  1
