# generated using pymatgen
data_Mo
_symmetry_space_group_name_H-M   'P 1'
_cell_length_a   7.27808089
_cell_length_b   7.27808089
_cell_length_c   3.63904047
_cell_angle_alpha   90.00000000
_cell_angle_beta   90.00000000
_cell_angle_gamma   90.00000000
_symmetry_Int_Tables_number   1
_chemical_formula_structural   Mo
_chemical_formula_sum   Mo16
_cell_volume   192.76165285
_cell_formula_units_Z   16
loop_
 _symmetry_equiv_pos_site_id
 _symmetry_equiv_pos_as_xyz
  1  'x, y, z'
loop_
 _atom_site_type_symbol
 _atom_site_label
 _atom_site_symmetry_multiplicity
 _atom_site_fract_x
 _atom_site_fract_y
 _atom_site_fract_z
 _atom_site_occupancy
  Mo  Mo0  1  -0.00140288  7.27713000  0.01145920  1
  Mo  Mo1  1  1.82250000  1.81038000  0.00447428  1
  Mo  Mo2  1  1.81916000  7.28398000  1.82739000  1
  Mo  Mo3  1  7.28498000  1.82850000  1.84025000  1
  Mo  Mo4  1  3.64130000  7.27072000  3.63696000  1
  Mo  Mo5  1  5.45491000  1.81138000  0.00260813  1
  Mo  Mo6  1  5.46195000  0.00013713  1.81172000  1
  Mo  Mo7  1  3.63202000  1.82683000  1.81713000  1
  Mo  Mo8  1  7.28577000  3.64272000  3.63576000  1
  Mo  Mo9  1  1.81389000  5.45094000  3.63388000  1
  Mo  Mo10  1  1.82482000  3.62653000  1.81686000  1
  Mo  Mo11  1  7.26959000  5.46491000  1.81097000  1
  Mo  Mo12  1  3.64394000  3.64096000  -0.01175770  1
  Mo  Mo13  1  5.45314000  5.46169000  3.63774000  1
  Mo  Mo14  1  5.46193000  3.63618000  1.83019000  1
  Mo  Mo15  1  3.63358000  5.46909000  1.80636000  1
