# generated using pymatgen
data_Mo
_symmetry_space_group_name_H-M   'P 1'
_cell_length_a   7.27788804
_cell_length_b   7.27788804
_cell_length_c   3.63894391
_cell_angle_alpha   90.00000000
_cell_angle_beta   90.00000000
_cell_angle_gamma   90.00000000
_symmetry_Int_Tables_number   1
_chemical_formula_structural   Mo
_chemical_formula_sum   Mo16
_cell_volume   192.74632321
_cell_formula_units_Z   16
loop_
 _symmetry_equiv_pos_site_id
 _symmetry_equiv_pos_as_xyz
  1  'x, y, z'
loop_
 _atom_site_type_symbol
 _atom_site_label
 _atom_site_symmetry_multiplicity
 _atom_site_fract_x
 _atom_site_fract_y
 _atom_site_fract_z
 _atom_site_occupancy
  Mo  Mo0  1  -0.01189280  0.04005160  0.05716400  1
  Mo  Mo1  1  1.80304000  1.82649000  3.63671000  1
  Mo  Mo2  1  1.82404000  -0.03202950  1.86693000  1
  Mo  Mo3  1  -0.02599900  1.81209000  1.79698000  1
  Mo  Mo4  1  3.62539000  0.01528660  3.62060000  1
  Mo  Mo5  1  5.45404000  1.81460000  0.02101410  1
  Mo  Mo6  1  5.44513000  7.24051000  1.82580000  1
  Mo  Mo7  1  3.65356000  1.84781000  1.79816000  1
  Mo  Mo8  1  -0.00960923  3.63790000  0.00902564  1
  Mo  Mo9  1  1.81222000  5.44193000  -0.01869480  1
  Mo  Mo10  1  1.86590000  3.68688000  1.81377000  1
  Mo  Mo11  1  7.27868000  5.42266000  1.80087000  1
  Mo  Mo12  1  3.65427000  3.62276000  3.60919000  1
  Mo  Mo13  1  5.47085000  5.43642000  -0.00321298  1
  Mo  Mo14  1  5.46749000  3.63559000  1.83257000  1
  Mo  Mo15  1  3.63901000  5.49715000  1.80618000  1
