# generated using pymatgen
data_Mo
_symmetry_space_group_name_H-M   'P 1'
_cell_length_a   7.27788804
_cell_length_b   7.27788804
_cell_length_c   3.63894391
_cell_angle_alpha   90.00000000
_cell_angle_beta   90.00000000
_cell_angle_gamma   90.00000000
_symmetry_Int_Tables_number   1
_chemical_formula_structural   Mo
_chemical_formula_sum   Mo16
_cell_volume   192.74632321
_cell_formula_units_Z   16
loop_
 _symmetry_equiv_pos_site_id
 _symmetry_equiv_pos_as_xyz
  1  'x, y, z'
loop_
 _atom_site_type_symbol
 _atom_site_label
 _atom_site_symmetry_multiplicity
 _atom_site_fract_x
 _atom_site_fract_y
 _atom_site_fract_z
 _atom_site_occupancy
  Mo  Mo0  1  0.00283059  -0.01447030  -0.00375971  1
  Mo  Mo1  1  1.81174000  1.82570000  3.64220000  1
  Mo  Mo2  1  1.81818000  -0.01473720  1.87816000  1
  Mo  Mo3  1  0.02948870  1.87239000  1.83016000  1
  Mo  Mo4  1  3.60499000  -0.00548135  3.65285000  1
  Mo  Mo5  1  5.44363000  1.80250000  -0.02489720  1
  Mo  Mo6  1  5.47815000  7.28263000  1.79977000  1
  Mo  Mo7  1  3.67299000  1.82530000  1.78821000  1
  Mo  Mo8  1  0.01300290  3.64084000  -0.01130410  1
  Mo  Mo9  1  1.82552000  5.42815000  0.01310750  1
  Mo  Mo10  1  1.81266000  3.62502000  1.82762000  1
  Mo  Mo11  1  7.25091000  5.50391000  1.83578000  1
  Mo  Mo12  1  3.68422000  3.65805000  3.61872000  1
  Mo  Mo13  1  5.45736000  5.44207000  -0.01150410  1
  Mo  Mo14  1  5.42983000  3.62910000  1.79325000  1
  Mo  Mo15  1  3.61060000  5.44513000  1.84470000  1
