# generated using pymatgen
data_Mo
_symmetry_space_group_name_H-M   'P 1'
_cell_length_a   7.27788804
_cell_length_b   7.27788804
_cell_length_c   3.63894391
_cell_angle_alpha   90.00000000
_cell_angle_beta   90.00000000
_cell_angle_gamma   90.00000000
_symmetry_Int_Tables_number   1
_chemical_formula_structural   Mo
_chemical_formula_sum   Mo16
_cell_volume   192.74632321
_cell_formula_units_Z   16
loop_
 _symmetry_equiv_pos_site_id
 _symmetry_equiv_pos_as_xyz
  1  'x, y, z'
loop_
 _atom_site_type_symbol
 _atom_site_label
 _atom_site_symmetry_multiplicity
 _atom_site_fract_x
 _atom_site_fract_y
 _atom_site_fract_z
 _atom_site_occupancy
  Mo  Mo0  1  0.02710390  0.00494353  -0.01602310  1
  Mo  Mo1  1  1.80383000  1.80198000  3.67037000  1
  Mo  Mo2  1  1.83498000  -0.02866270  1.83003000  1
  Mo  Mo3  1  -0.01822600  1.83591000  1.80962000  1
  Mo  Mo4  1  3.61932000  0.01336980  3.68005000  1
  Mo  Mo5  1  5.46555000  1.80624000  -0.00243325  1
  Mo  Mo6  1  5.47396000  7.29303000  1.83009000  1
  Mo  Mo7  1  3.65896000  1.78980000  1.79609000  1
  Mo  Mo8  1  -0.00592097  3.66023000  0.01320630  1
  Mo  Mo9  1  1.79745000  5.43588000  0.02301010  1
  Mo  Mo10  1  1.84188000  3.64182000  1.83243000  1
  Mo  Mo11  1  7.26482000  5.49508000  1.80605000  1
  Mo  Mo12  1  3.62689000  3.64095000  3.61584000  1
  Mo  Mo13  1  5.45918000  5.44304000  -0.00650858  1
  Mo  Mo14  1  5.46005000  3.64289000  1.79067000  1
  Mo  Mo15  1  3.63627000  5.46960000  1.80055000  1
