# generated using pymatgen
data_Mo
_symmetry_space_group_name_H-M   'P 1'
_cell_length_a   7.27788804
_cell_length_b   7.27788804
_cell_length_c   3.63894391
_cell_angle_alpha   90.00000000
_cell_angle_beta   90.00000000
_cell_angle_gamma   90.00000000
_symmetry_Int_Tables_number   1
_chemical_formula_structural   Mo
_chemical_formula_sum   Mo16
_cell_volume   192.74632321
_cell_formula_units_Z   16
loop_
 _symmetry_equiv_pos_site_id
 _symmetry_equiv_pos_as_xyz
  1  'x, y, z'
loop_
 _atom_site_type_symbol
 _atom_site_label
 _atom_site_symmetry_multiplicity
 _atom_site_fract_x
 _atom_site_fract_y
 _atom_site_fract_z
 _atom_site_occupancy
  Mo  Mo0  1  0.02127140  0.03126430  0.02733160  1
  Mo  Mo1  1  1.81969000  1.82205000  3.62512000  1
  Mo  Mo2  1  1.84978000  -0.02102280  1.81015000  1
  Mo  Mo3  1  -0.03558950  1.78884000  1.81004000  1
  Mo  Mo4  1  3.65593000  -0.02422120  3.60698000  1
  Mo  Mo5  1  5.47567000  1.87554000  0.03657280  1
  Mo  Mo6  1  5.46732000  7.25274000  1.79980000  1
  Mo  Mo7  1  3.65780000  1.82959000  1.82697000  1
  Mo  Mo8  1  -0.00541731  3.64997000  0.00184947  1
  Mo  Mo9  1  1.81526000  5.44859000  -0.02617000  1
  Mo  Mo10  1  1.81892000  3.65147000  1.80472000  1
  Mo  Mo11  1  7.25557000  5.45125000  1.78184000  1
  Mo  Mo12  1  3.59053000  3.62450000  3.67115000  1
  Mo  Mo13  1  5.45118000  5.44350000  0.01629060  1
  Mo  Mo14  1  5.45389000  3.65333000  1.87059000  1
  Mo  Mo15  1  3.65430000  5.46872000  1.80981000  1
