# generated using pymatgen
data_Mo
_symmetry_space_group_name_H-M   'P 1'
_cell_length_a   7.27788804
_cell_length_b   7.27788804
_cell_length_c   3.63894391
_cell_angle_alpha   90.00000000
_cell_angle_beta   90.00000000
_cell_angle_gamma   90.00000000
_symmetry_Int_Tables_number   1
_chemical_formula_structural   Mo
_chemical_formula_sum   Mo16
_cell_volume   192.74632321
_cell_formula_units_Z   16
loop_
 _symmetry_equiv_pos_site_id
 _symmetry_equiv_pos_as_xyz
  1  'x, y, z'
loop_
 _atom_site_type_symbol
 _atom_site_label
 _atom_site_symmetry_multiplicity
 _atom_site_fract_x
 _atom_site_fract_y
 _atom_site_fract_z
 _atom_site_occupancy
  Mo  Mo0  1  -0.00913917  0.00550027  0.01357660  1
  Mo  Mo1  1  1.85156000  1.84527000  3.62902000  1
  Mo  Mo2  1  1.80831000  0.01629400  1.77987000  1
  Mo  Mo3  1  -0.00939494  1.80986000  1.81581000  1
  Mo  Mo4  1  3.67408000  -0.01386520  3.59797000  1
  Mo  Mo5  1  5.45932000  1.81437000  0.01769840  1
  Mo  Mo6  1  5.45973000  7.28202000  1.83747000  1
  Mo  Mo7  1  3.60108000  1.82294000  1.84658000  1
  Mo  Mo8  1  -0.06858720  3.64403000  -0.01591250  1
  Mo  Mo9  1  1.81658000  5.47183000  -0.01484650  1
  Mo  Mo10  1  1.83114000  3.63479000  1.81966000  1
  Mo  Mo11  1  7.30588000  5.39670000  1.81436000  1
  Mo  Mo12  1  3.64318000  3.62802000  3.66435000  1
  Mo  Mo13  1  5.43654000  5.50495000  0.00731990  1
  Mo  Mo14  1  5.49399000  3.63304000  1.86394000  1
  Mo  Mo15  1  3.65183000  5.45037000  1.79620000  1
