# generated using pymatgen
data_Mo
_symmetry_space_group_name_H-M   'P 1'
_cell_length_a   7.27788804
_cell_length_b   7.27788804
_cell_length_c   3.63894391
_cell_angle_alpha   90.00000000
_cell_angle_beta   90.00000000
_cell_angle_gamma   90.00000000
_symmetry_Int_Tables_number   1
_chemical_formula_structural   Mo
_chemical_formula_sum   Mo16
_cell_volume   192.74632321
_cell_formula_units_Z   16
loop_
 _symmetry_equiv_pos_site_id
 _symmetry_equiv_pos_as_xyz
  1  'x, y, z'
loop_
 _atom_site_type_symbol
 _atom_site_label
 _atom_site_symmetry_multiplicity
 _atom_site_fract_x
 _atom_site_fract_y
 _atom_site_fract_z
 _atom_site_occupancy
  Mo  Mo0  1  0.00345892  0.03657490  -0.00626985  1
  Mo  Mo1  1  1.79842000  1.80854000  3.62025000  1
  Mo  Mo2  1  1.81600000  -0.04456050  1.83994000  1
  Mo  Mo3  1  -0.00710392  1.82391000  1.79151000  1
  Mo  Mo4  1  3.66243000  0.04314420  3.64739000  1
  Mo  Mo5  1  5.43591000  1.82189000  -0.02062030  1
  Mo  Mo6  1  5.45533000  7.26971000  1.77944000  1
  Mo  Mo7  1  3.64987000  1.83905000  1.81893000  1
  Mo  Mo8  1  -0.00060565  3.64128000  0.04568570  1
  Mo  Mo9  1  1.80135000  5.44395000  0.00621986  1
  Mo  Mo10  1  1.83655000  3.65957000  1.83768000  1
  Mo  Mo11  1  7.28758000  5.42424000  1.84706000  1
  Mo  Mo12  1  3.66103000  3.60488000  3.61145000  1
  Mo  Mo13  1  5.47502000  5.47793000  -0.01592650  1
  Mo  Mo14  1  5.43275000  3.66193000  1.82105000  1
  Mo  Mo15  1  3.63813000  5.43408000  1.84927000  1
