# generated using pymatgen
data_Mo
_symmetry_space_group_name_H-M   'P 1'
_cell_length_a   7.27788804
_cell_length_b   7.27788804
_cell_length_c   3.63894391
_cell_angle_alpha   90.00000000
_cell_angle_beta   90.00000000
_cell_angle_gamma   90.00000000
_symmetry_Int_Tables_number   1
_chemical_formula_structural   Mo
_chemical_formula_sum   Mo16
_cell_volume   192.74632321
_cell_formula_units_Z   16
loop_
 _symmetry_equiv_pos_site_id
 _symmetry_equiv_pos_as_xyz
  1  'x, y, z'
loop_
 _atom_site_type_symbol
 _atom_site_label
 _atom_site_symmetry_multiplicity
 _atom_site_fract_x
 _atom_site_fract_y
 _atom_site_fract_z
 _atom_site_occupancy
  Mo  Mo0  1  -0.00556580  -0.01711010  -0.01370080  1
  Mo  Mo1  1  1.82278000  1.84462000  3.59312000  1
  Mo  Mo2  1  1.81890000  0.01787430  1.80574000  1
  Mo  Mo3  1  -0.00268567  1.76971000  1.81934000  1
  Mo  Mo4  1  3.66853000  0.01564800  3.62167000  1
  Mo  Mo5  1  5.46196000  1.83743000  0.00129569  1
  Mo  Mo6  1  5.44492000  7.28506000  1.82883000  1
  Mo  Mo7  1  3.63253000  1.83850000  1.83045000  1
  Mo  Mo8  1  0.00118091  3.63664000  0.02272760  1
  Mo  Mo9  1  1.82554000  5.48516000  -0.00839140  1
  Mo  Mo10  1  1.77629000  3.63724000  1.80921000  1
  Mo  Mo11  1  7.28589000  5.43409000  1.84015000  1
  Mo  Mo12  1  3.64547000  3.64813000  3.62174000  1
  Mo  Mo13  1  5.47811000  5.45995000  0.00856643  1
  Mo  Mo14  1  5.44382000  3.61365000  1.84743000  1
  Mo  Mo15  1  3.64844000  5.43952000  1.84487000  1
