# generated using pymatgen
data_Mo
_symmetry_space_group_name_H-M   'P 1'
_cell_length_a   7.27788804
_cell_length_b   7.27788804
_cell_length_c   3.63894391
_cell_angle_alpha   90.00000000
_cell_angle_beta   90.00000000
_cell_angle_gamma   90.00000000
_symmetry_Int_Tables_number   1
_chemical_formula_structural   Mo
_chemical_formula_sum   Mo16
_cell_volume   192.74632321
_cell_formula_units_Z   16
loop_
 _symmetry_equiv_pos_site_id
 _symmetry_equiv_pos_as_xyz
  1  'x, y, z'
loop_
 _atom_site_type_symbol
 _atom_site_label
 _atom_site_symmetry_multiplicity
 _atom_site_fract_x
 _atom_site_fract_y
 _atom_site_fract_z
 _atom_site_occupancy
  Mo  Mo0  1  0.03454980  -0.00773648  0.01507900  1
  Mo  Mo1  1  1.82186000  1.86545000  3.62238000  1
  Mo  Mo2  1  1.78807000  0.01782230  1.81568000  1
  Mo  Mo3  1  0.00426535  1.78580000  1.82934000  1
  Mo  Mo4  1  3.61493000  -0.02999400  3.62059000  1
  Mo  Mo5  1  5.48629000  1.83740000  -0.01046610  1
  Mo  Mo6  1  5.43714000  7.25731000  1.80229000  1
  Mo  Mo7  1  3.63833000  1.81122000  1.81581000  1
  Mo  Mo8  1  0.02215930  3.65414000  0.00812222  1
  Mo  Mo9  1  1.81030000  5.44808000  0.00327833  1
  Mo  Mo10  1  1.82932000  3.65219000  1.79822000  1
  Mo  Mo11  1  7.26889000  5.43133000  1.81996000  1
  Mo  Mo12  1  3.62257000  3.63375000  3.64423000  1
  Mo  Mo13  1  5.44818000  5.47557000  0.00760707  1
  Mo  Mo14  1  5.45111000  3.64167000  1.84220000  1
  Mo  Mo15  1  3.66815000  5.47211000  1.83874000  1
