# generated using pymatgen
data_Mo
_symmetry_space_group_name_H-M   'P 1'
_cell_length_a   7.27788804
_cell_length_b   7.27788804
_cell_length_c   3.63894391
_cell_angle_alpha   90.00000000
_cell_angle_beta   90.00000000
_cell_angle_gamma   90.00000000
_symmetry_Int_Tables_number   1
_chemical_formula_structural   Mo
_chemical_formula_sum   Mo16
_cell_volume   192.74632321
_cell_formula_units_Z   16
loop_
 _symmetry_equiv_pos_site_id
 _symmetry_equiv_pos_as_xyz
  1  'x, y, z'
loop_
 _atom_site_type_symbol
 _atom_site_label
 _atom_site_symmetry_multiplicity
 _atom_site_fract_x
 _atom_site_fract_y
 _atom_site_fract_z
 _atom_site_occupancy
  Mo  Mo0  1  -0.03166570  -0.00810251  -0.00310562  1
  Mo  Mo1  1  1.82634000  1.80818000  3.63850000  1
  Mo  Mo2  1  1.81359000  0.01001020  1.83089000  1
  Mo  Mo3  1  0.00158416  1.79949000  1.81681000  1
  Mo  Mo4  1  3.60407000  0.01645060  3.67143000  1
  Mo  Mo5  1  5.47631000  1.80804000  -0.01552040  1
  Mo  Mo6  1  5.45349000  7.30661000  1.79967000  1
  Mo  Mo7  1  3.66053000  1.79646000  1.80387000  1
  Mo  Mo8  1  0.00571692  3.63277000  0.02949560  1
  Mo  Mo9  1  1.84103000  5.49216000  0.01126900  1
  Mo  Mo10  1  1.81079000  3.65651000  1.82109000  1
  Mo  Mo11  1  7.26877000  5.46687000  1.83781000  1
  Mo  Mo12  1  3.67904000  3.63259000  3.61028000  1
  Mo  Mo13  1  5.48032000  5.45970000  0.00632251  1
  Mo  Mo14  1  5.44359000  3.62715000  1.76603000  1
  Mo  Mo15  1  3.61262000  5.44125000  1.84823000  1
