# generated using pymatgen
data_Mo
_symmetry_space_group_name_H-M   'P 1'
_cell_length_a   7.27788804
_cell_length_b   7.27788804
_cell_length_c   3.63894391
_cell_angle_alpha   90.00000000
_cell_angle_beta   90.00000000
_cell_angle_gamma   90.00000000
_symmetry_Int_Tables_number   1
_chemical_formula_structural   Mo
_chemical_formula_sum   Mo16
_cell_volume   192.74632321
_cell_formula_units_Z   16
loop_
 _symmetry_equiv_pos_site_id
 _symmetry_equiv_pos_as_xyz
  1  'x, y, z'
loop_
 _atom_site_type_symbol
 _atom_site_label
 _atom_site_symmetry_multiplicity
 _atom_site_fract_x
 _atom_site_fract_y
 _atom_site_fract_z
 _atom_site_occupancy
  Mo  Mo0  1  0.01100130  -0.04522120  0.00261049  1
  Mo  Mo1  1  1.84222000  1.82298000  3.63695000  1
  Mo  Mo2  1  1.79841000  0.01824160  1.79611000  1
  Mo  Mo3  1  0.01772770  1.82543000  1.85587000  1
  Mo  Mo4  1  3.64940000  -0.01684830  3.64701000  1
  Mo  Mo5  1  5.47029000  1.83189000  0.04491680  1
  Mo  Mo6  1  5.43700000  7.27340000  1.83145000  1
  Mo  Mo7  1  3.65222000  1.78382000  1.82396000  1
  Mo  Mo8  1  0.00459172  3.65614000  -0.06393320  1
  Mo  Mo9  1  1.83067000  5.47441000  -0.03689040  1
  Mo  Mo10  1  1.81497000  3.64260000  1.84521000  1
  Mo  Mo11  1  7.27077000  5.49142000  1.81538000  1
  Mo  Mo12  1  3.61028000  3.65597000  3.65571000  1
  Mo  Mo13  1  5.46152000  5.46907000  -0.00113034  1
  Mo  Mo14  1  5.46924000  3.62005000  1.79943000  1
  Mo  Mo15  1  3.60579000  5.44275000  1.82040000  1
