# generated using pymatgen
data_Mo
_symmetry_space_group_name_H-M   'P 1'
_cell_length_a   7.27808089
_cell_length_b   7.27808089
_cell_length_c   3.63904047
_cell_angle_alpha   90.00000000
_cell_angle_beta   90.00000000
_cell_angle_gamma   90.00000000
_symmetry_Int_Tables_number   1
_chemical_formula_structural   Mo
_chemical_formula_sum   Mo16
_cell_volume   192.76165285
_cell_formula_units_Z   16
loop_
 _symmetry_equiv_pos_site_id
 _symmetry_equiv_pos_as_xyz
  1  'x, y, z'
loop_
 _atom_site_type_symbol
 _atom_site_label
 _atom_site_symmetry_multiplicity
 _atom_site_fract_x
 _atom_site_fract_y
 _atom_site_fract_z
 _atom_site_occupancy
  Mo  Mo0  1  0.00964038  7.28119000  -0.00089801  1
  Mo  Mo1  1  1.80906000  1.81433000  -0.01133960  1
  Mo  Mo2  1  1.82571000  7.26023000  1.80560000  1
  Mo  Mo3  1  7.27504000  1.82154000  1.81284000  1
  Mo  Mo4  1  3.64470000  7.28411000  3.64398000  1
  Mo  Mo5  1  5.45540000  1.82069000  -0.00429386  1
  Mo  Mo6  1  5.45239000  -0.00937593  1.81749000  1
  Mo  Mo7  1  3.62924000  1.82881000  1.82066000  1
  Mo  Mo8  1  7.27754000  3.64955000  3.62266000  1
  Mo  Mo9  1  1.82129000  5.45165000  3.65736000  1
  Mo  Mo10  1  1.83122000  3.64563000  1.82801000  1
  Mo  Mo11  1  7.28383000  5.45944000  1.81779000  1
  Mo  Mo12  1  3.63416000  3.64025000  0.00587558  1
  Mo  Mo13  1  5.46826000  5.44997000  3.64924000  1
  Mo  Mo14  1  5.45473000  3.63687000  1.82145000  1
  Mo  Mo15  1  3.62985000  5.46721000  1.82558000  1
