# generated using pymatgen
data_Mo
_symmetry_space_group_name_H-M   'P 1'
_cell_length_a   7.27788804
_cell_length_b   7.27788804
_cell_length_c   3.63894391
_cell_angle_alpha   90.00000000
_cell_angle_beta   90.00000000
_cell_angle_gamma   90.00000000
_symmetry_Int_Tables_number   1
_chemical_formula_structural   Mo
_chemical_formula_sum   Mo16
_cell_volume   192.74632321
_cell_formula_units_Z   16
loop_
 _symmetry_equiv_pos_site_id
 _symmetry_equiv_pos_as_xyz
  1  'x, y, z'
loop_
 _atom_site_type_symbol
 _atom_site_label
 _atom_site_symmetry_multiplicity
 _atom_site_fract_x
 _atom_site_fract_y
 _atom_site_fract_z
 _atom_site_occupancy
  Mo  Mo0  1  -0.02996380  -0.02966440  -0.02071100  1
  Mo  Mo1  1  1.82904000  1.80452000  3.65458000  1
  Mo  Mo2  1  1.80254000  0.02307960  1.82233000  1
  Mo  Mo3  1  -0.02390680  1.81468000  1.82272000  1
  Mo  Mo4  1  3.63454000  0.01171840  3.67685000  1
  Mo  Mo5  1  5.44527000  1.80716000  -0.03296030  1
  Mo  Mo6  1  5.43930000  7.28110000  1.82472000  1
  Mo  Mo7  1  3.65649000  1.81175000  1.80165000  1
  Mo  Mo8  1  0.03074270  3.64511000  -0.00427023  1
  Mo  Mo9  1  1.81519000  5.45679000  0.03994500  1
  Mo  Mo10  1  1.83091000  3.64590000  1.81846000  1
  Mo  Mo11  1  7.26426000  5.48114000  1.83459000  1
  Mo  Mo12  1  3.63419000  3.67450000  3.62692000  1
  Mo  Mo13  1  5.47120000  5.41996000  -0.00062449  1
  Mo  Mo14  1  5.48776000  3.64083000  1.78463000  1
  Mo  Mo15  1  3.65855000  5.45753000  1.82421000  1
