# generated using pymatgen
data_Mo
_symmetry_space_group_name_H-M   'P 1'
_cell_length_a   7.27788804
_cell_length_b   7.27788804
_cell_length_c   3.63894391
_cell_angle_alpha   90.00000000
_cell_angle_beta   90.00000000
_cell_angle_gamma   90.00000000
_symmetry_Int_Tables_number   1
_chemical_formula_structural   Mo
_chemical_formula_sum   Mo16
_cell_volume   192.74632321
_cell_formula_units_Z   16
loop_
 _symmetry_equiv_pos_site_id
 _symmetry_equiv_pos_as_xyz
  1  'x, y, z'
loop_
 _atom_site_type_symbol
 _atom_site_label
 _atom_site_symmetry_multiplicity
 _atom_site_fract_x
 _atom_site_fract_y
 _atom_site_fract_z
 _atom_site_occupancy
  Mo  Mo0  1  -0.01333380  0.00865033  0.00465347  1
  Mo  Mo1  1  1.81423000  1.79530000  3.63150000  1
  Mo  Mo2  1  1.82424000  0.01007630  1.80918000  1
  Mo  Mo3  1  0.02539180  1.80719000  1.81987000  1
  Mo  Mo4  1  3.67493000  -0.03201650  3.62050000  1
  Mo  Mo5  1  5.45190000  1.82333000  0.02714680  1
  Mo  Mo6  1  5.47390000  7.30521000  1.83467000  1
  Mo  Mo7  1  3.63972000  1.81737000  1.83940000  1
  Mo  Mo8  1  -0.00498400  3.64512000  0.02152730  1
  Mo  Mo9  1  1.82324000  5.50237000  -0.04257350  1
  Mo  Mo10  1  1.77447000  3.61063000  1.83368000  1
  Mo  Mo11  1  7.29591000  5.44720000  1.82284000  1
  Mo  Mo12  1  3.64990000  3.65285000  3.61795000  1
  Mo  Mo13  1  5.44982000  5.47867000  -0.00761762  1
  Mo  Mo14  1  5.44561000  3.63273000  1.82117000  1
  Mo  Mo15  1  3.62116000  5.44144000  1.81914000  1
