# generated using pymatgen
data_Mo
_symmetry_space_group_name_H-M   'P 1'
_cell_length_a   7.27788804
_cell_length_b   7.27788804
_cell_length_c   3.63894391
_cell_angle_alpha   90.00000000
_cell_angle_beta   90.00000000
_cell_angle_gamma   90.00000000
_symmetry_Int_Tables_number   1
_chemical_formula_structural   Mo
_chemical_formula_sum   Mo16
_cell_volume   192.74632321
_cell_formula_units_Z   16
loop_
 _symmetry_equiv_pos_site_id
 _symmetry_equiv_pos_as_xyz
  1  'x, y, z'
loop_
 _atom_site_type_symbol
 _atom_site_label
 _atom_site_symmetry_multiplicity
 _atom_site_fract_x
 _atom_site_fract_y
 _atom_site_fract_z
 _atom_site_occupancy
  Mo  Mo0  1  -0.01246560  -0.00995045  0.03036060  1
  Mo  Mo1  1  1.80485000  1.83267000  3.63867000  1
  Mo  Mo2  1  1.83286000  0.00323594  1.83295000  1
  Mo  Mo3  1  -0.02261960  1.77500000  1.78796000  1
  Mo  Mo4  1  3.61734000  -0.02252500  3.61489000  1
  Mo  Mo5  1  5.45146000  1.83354000  -0.03799280  1
  Mo  Mo6  1  5.49490000  7.28160000  1.81013000  1
  Mo  Mo7  1  3.62090000  1.83054000  1.80747000  1
  Mo  Mo8  1  0.01905150  3.66600000  0.05371410  1
  Mo  Mo9  1  1.83473000  5.46046000  0.01426320  1
  Mo  Mo10  1  1.81198000  3.60355000  1.79060000  1
  Mo  Mo11  1  7.27806000  5.46662000  1.81934000  1
  Mo  Mo12  1  3.63610000  3.65595000  3.63170000  1
  Mo  Mo13  1  5.45391000  5.43385000  0.01479650  1
  Mo  Mo14  1  5.47555000  3.62874000  1.83755000  1
  Mo  Mo15  1  3.64949000  5.50685000  1.82666000  1
