# generated using pymatgen
data_Mo
_symmetry_space_group_name_H-M   'P 1'
_cell_length_a   7.27788804
_cell_length_b   7.27788804
_cell_length_c   3.63894391
_cell_angle_alpha   90.00000000
_cell_angle_beta   90.00000000
_cell_angle_gamma   90.00000000
_symmetry_Int_Tables_number   1
_chemical_formula_structural   Mo
_chemical_formula_sum   Mo16
_cell_volume   192.74632321
_cell_formula_units_Z   16
loop_
 _symmetry_equiv_pos_site_id
 _symmetry_equiv_pos_as_xyz
  1  'x, y, z'
loop_
 _atom_site_type_symbol
 _atom_site_label
 _atom_site_symmetry_multiplicity
 _atom_site_fract_x
 _atom_site_fract_y
 _atom_site_fract_z
 _atom_site_occupancy
  Mo  Mo0  1  0.02821590  0.00393332  -0.01563950  1
  Mo  Mo1  1  1.83126000  1.81616000  3.62924000  1
  Mo  Mo2  1  1.80668000  0.00343472  1.80720000  1
  Mo  Mo3  1  0.01105090  1.83495000  1.85825000  1
  Mo  Mo4  1  3.64080000  0.02067440  3.65928000  1
  Mo  Mo5  1  5.48516000  1.80604000  0.01897010  1
  Mo  Mo6  1  5.46820000  7.24296000  1.78577000  1
  Mo  Mo7  1  3.61015000  1.80510000  1.83970000  1
  Mo  Mo8  1  -0.02955080  3.60911000  -0.02893900  1
  Mo  Mo9  1  1.81982000  5.47234000  -0.01842720  1
  Mo  Mo10  1  1.83798000  3.65288000  1.78332000  1
  Mo  Mo11  1  7.26512000  5.45763000  1.82577000  1
  Mo  Mo12  1  3.62427000  3.61986000  3.67550000  1
  Mo  Mo13  1  5.46769000  5.50668000  0.00236843  1
  Mo  Mo14  1  5.45316000  3.64315000  1.83727000  1
  Mo  Mo15  1  3.62610000  5.45119000  1.81343000  1
