# generated using pymatgen
data_Mo
_symmetry_space_group_name_H-M   'P 1'
_cell_length_a   7.27788804
_cell_length_b   7.27788804
_cell_length_c   3.63894391
_cell_angle_alpha   90.00000000
_cell_angle_beta   90.00000000
_cell_angle_gamma   90.00000000
_symmetry_Int_Tables_number   1
_chemical_formula_structural   Mo
_chemical_formula_sum   Mo16
_cell_volume   192.74632321
_cell_formula_units_Z   16
loop_
 _symmetry_equiv_pos_site_id
 _symmetry_equiv_pos_as_xyz
  1  'x, y, z'
loop_
 _atom_site_type_symbol
 _atom_site_label
 _atom_site_symmetry_multiplicity
 _atom_site_fract_x
 _atom_site_fract_y
 _atom_site_fract_z
 _atom_site_occupancy
  Mo  Mo0  1  0.00276483  0.01289760  -0.05881590  1
  Mo  Mo1  1  1.81789000  1.79403000  3.65083000  1
  Mo  Mo2  1  1.80502000  -0.00501283  1.82294000  1
  Mo  Mo3  1  0.00504855  1.84727000  1.83115000  1
  Mo  Mo4  1  3.66667000  0.02891330  3.68030000  1
  Mo  Mo5  1  5.47808000  1.82230000  0.01972640  1
  Mo  Mo6  1  5.43581000  7.28256000  1.80328000  1
  Mo  Mo7  1  3.66442000  1.79914000  1.83193000  1
  Mo  Mo8  1  -0.01090390  3.61552000  -0.02365900  1
  Mo  Mo9  1  1.80095000  5.44524000  0.01452810  1
  Mo  Mo10  1  1.80829000  3.66477000  1.83098000  1
  Mo  Mo11  1  7.28431000  5.46658000  1.82057000  1
  Mo  Mo12  1  3.63428000  3.60998000  3.64410000  1
  Mo  Mo13  1  5.46111000  5.46768000  -0.00955430  1
  Mo  Mo14  1  5.45277000  3.66592000  1.81455000  1
  Mo  Mo15  1  3.63962000  5.42831000  1.80019000  1
