# generated using pymatgen
data_Mo
_symmetry_space_group_name_H-M   'P 1'
_cell_length_a   7.27788804
_cell_length_b   7.27788804
_cell_length_c   3.63894391
_cell_angle_alpha   90.00000000
_cell_angle_beta   90.00000000
_cell_angle_gamma   90.00000000
_symmetry_Int_Tables_number   1
_chemical_formula_structural   Mo
_chemical_formula_sum   Mo16
_cell_volume   192.74632321
_cell_formula_units_Z   16
loop_
 _symmetry_equiv_pos_site_id
 _symmetry_equiv_pos_as_xyz
  1  'x, y, z'
loop_
 _atom_site_type_symbol
 _atom_site_label
 _atom_site_symmetry_multiplicity
 _atom_site_fract_x
 _atom_site_fract_y
 _atom_site_fract_z
 _atom_site_occupancy
  Mo  Mo0  1  -0.00999921  0.02140020  0.02060330  1
  Mo  Mo1  1  1.81305000  1.82460000  3.62267000  1
  Mo  Mo2  1  1.85038000  -0.00097560  1.79235000  1
  Mo  Mo3  1  0.00369339  1.79929000  1.81038000  1
  Mo  Mo4  1  3.62267000  -0.01395130  3.63267000  1
  Mo  Mo5  1  5.47144000  1.79562000  0.02521000  1
  Mo  Mo6  1  5.47303000  7.24860000  1.87156000  1
  Mo  Mo7  1  3.63424000  1.82234000  1.83517000  1
  Mo  Mo8  1  0.02677510  3.65563000  0.03676120  1
  Mo  Mo9  1  1.80544000  5.47701000  -0.00085397  1
  Mo  Mo10  1  1.80609000  3.65049000  1.78742000  1
  Mo  Mo11  1  7.27784000  5.45176000  1.78061000  1
  Mo  Mo12  1  3.63366000  3.63867000  3.63274000  1
  Mo  Mo13  1  5.43229000  5.42779000  -0.00925809  1
  Mo  Mo14  1  5.47112000  3.64974000  1.82265000  1
  Mo  Mo15  1  3.63441000  5.49808000  1.81238000  1
