# generated using pymatgen
data_Mo
_symmetry_space_group_name_H-M   'P 1'
_cell_length_a   7.27788804
_cell_length_b   7.27788804
_cell_length_c   3.63894391
_cell_angle_alpha   90.00000000
_cell_angle_beta   90.00000000
_cell_angle_gamma   90.00000000
_symmetry_Int_Tables_number   1
_chemical_formula_structural   Mo
_chemical_formula_sum   Mo16
_cell_volume   192.74632321
_cell_formula_units_Z   16
loop_
 _symmetry_equiv_pos_site_id
 _symmetry_equiv_pos_as_xyz
  1  'x, y, z'
loop_
 _atom_site_type_symbol
 _atom_site_label
 _atom_site_symmetry_multiplicity
 _atom_site_fract_x
 _atom_site_fract_y
 _atom_site_fract_z
 _atom_site_occupancy
  Mo  Mo0  1  -0.01012350  0.01119870  0.00728802  1
  Mo  Mo1  1  1.80720000  1.84351000  3.65517000  1
  Mo  Mo2  1  1.83126000  -0.00774458  1.80446000  1
  Mo  Mo3  1  -0.01158950  1.80358000  1.83233000  1
  Mo  Mo4  1  3.59605000  0.02209860  3.65496000  1
  Mo  Mo5  1  5.47391000  1.82797000  0.00915043  1
  Mo  Mo6  1  5.45184000  7.27538000  1.83706000  1
  Mo  Mo7  1  3.64093000  1.78559000  1.81397000  1
  Mo  Mo8  1  0.03930080  3.58873000  0.02385520  1
  Mo  Mo9  1  1.83790000  5.48006000  -0.00458368  1
  Mo  Mo10  1  1.82012000  3.65206000  1.80887000  1
  Mo  Mo11  1  7.27126000  5.46105000  1.83731000  1
  Mo  Mo12  1  3.63382000  3.64847000  3.60485000  1
  Mo  Mo13  1  5.48335000  5.43644000  -0.00340837  1
  Mo  Mo14  1  5.44872000  3.66565000  1.77569000  1
  Mo  Mo15  1  3.63216000  5.45208000  1.81609000  1
