# generated using pymatgen
data_Mo
_symmetry_space_group_name_H-M   'P 1'
_cell_length_a   7.27788804
_cell_length_b   7.27788804
_cell_length_c   3.63894391
_cell_angle_alpha   90.00000000
_cell_angle_beta   90.00000000
_cell_angle_gamma   90.00000000
_symmetry_Int_Tables_number   1
_chemical_formula_structural   Mo
_chemical_formula_sum   Mo16
_cell_volume   192.74632321
_cell_formula_units_Z   16
loop_
 _symmetry_equiv_pos_site_id
 _symmetry_equiv_pos_as_xyz
  1  'x, y, z'
loop_
 _atom_site_type_symbol
 _atom_site_label
 _atom_site_symmetry_multiplicity
 _atom_site_fract_x
 _atom_site_fract_y
 _atom_site_fract_z
 _atom_site_occupancy
  Mo  Mo0  1  -0.01760610  -0.00902480  -0.01816930  1
  Mo  Mo1  1  1.82797000  1.80897000  3.62965000  1
  Mo  Mo2  1  1.81125000  -0.00112459  1.82204000  1
  Mo  Mo3  1  0.02016800  1.81712000  1.84843000  1
  Mo  Mo4  1  3.66658000  -0.01274370  3.64575000  1
  Mo  Mo5  1  5.45695000  1.81245000  0.00735070  1
  Mo  Mo6  1  5.47299000  7.28331000  1.80905000  1
  Mo  Mo7  1  3.61494000  1.80839000  1.84570000  1
  Mo  Mo8  1  -0.02518220  3.64389000  0.01268600  1
  Mo  Mo9  1  1.84378000  5.47995000  -0.03082310  1
  Mo  Mo10  1  1.77879000  3.64107000  1.81021000  1
  Mo  Mo11  1  7.29670000  5.43440000  1.80491000  1
  Mo  Mo12  1  3.65724000  3.62032000  3.62460000  1
  Mo  Mo13  1  5.46849000  5.51327000  -0.00982259  1
  Mo  Mo14  1  5.44263000  3.64700000  1.82587000  1
  Mo  Mo15  1  3.63041000  5.45887000  1.84563000  1
