# generated using pymatgen
data_Mo
_symmetry_space_group_name_H-M   'P 1'
_cell_length_a   7.27788804
_cell_length_b   7.27788804
_cell_length_c   3.63894391
_cell_angle_alpha   90.00000000
_cell_angle_beta   90.00000000
_cell_angle_gamma   90.00000000
_symmetry_Int_Tables_number   1
_chemical_formula_structural   Mo
_chemical_formula_sum   Mo16
_cell_volume   192.74632321
_cell_formula_units_Z   16
loop_
 _symmetry_equiv_pos_site_id
 _symmetry_equiv_pos_as_xyz
  1  'x, y, z'
loop_
 _atom_site_type_symbol
 _atom_site_label
 _atom_site_symmetry_multiplicity
 _atom_site_fract_x
 _atom_site_fract_y
 _atom_site_fract_z
 _atom_site_occupancy
  Mo  Mo0  1  0.00452402  0.04142940  0.01702000  1
  Mo  Mo1  1  1.80357000  1.81699000  3.63948000  1
  Mo  Mo2  1  1.81073000  0.00671634  1.84939000  1
  Mo  Mo3  1  -0.00093109  1.80939000  1.77687000  1
  Mo  Mo4  1  3.63427000  -0.02537270  3.64111000  1
  Mo  Mo5  1  5.45281000  1.82682000  -0.01789460  1
  Mo  Mo6  1  5.44232000  7.24914000  1.82280000  1
  Mo  Mo7  1  3.64525000  1.82568000  1.80169000  1
  Mo  Mo8  1  0.00954788  3.66852000  0.00457880  1
  Mo  Mo9  1  1.81788000  5.41549000  0.01232960  1
  Mo  Mo10  1  1.85599000  3.64498000  1.86156000  1
  Mo  Mo11  1  7.25893000  5.44034000  1.80487000  1
  Mo  Mo12  1  3.63730000  3.64825000  3.62551000  1
  Mo  Mo13  1  5.43944000  5.43546000  0.00026092  1
  Mo  Mo14  1  5.46795000  3.65280000  1.80295000  1
  Mo  Mo15  1  3.66652000  5.48949000  1.83053000  1
