# generated using pymatgen
data_Mo
_symmetry_space_group_name_H-M   'P 1'
_cell_length_a   7.27808089
_cell_length_b   7.27808089
_cell_length_c   3.63904047
_cell_angle_alpha   90.00000000
_cell_angle_beta   90.00000000
_cell_angle_gamma   90.00000000
_symmetry_Int_Tables_number   1
_chemical_formula_structural   Mo
_chemical_formula_sum   Mo16
_cell_volume   192.76165285
_cell_formula_units_Z   16
loop_
 _symmetry_equiv_pos_site_id
 _symmetry_equiv_pos_as_xyz
  1  'x, y, z'
loop_
 _atom_site_type_symbol
 _atom_site_label
 _atom_site_symmetry_multiplicity
 _atom_site_fract_x
 _atom_site_fract_y
 _atom_site_fract_z
 _atom_site_occupancy
  Mo  Mo0  1  0.00350647  7.26642000  -0.00859045  1
  Mo  Mo1  1  1.82672000  1.82140000  -0.00503334  1
  Mo  Mo2  1  1.82437000  7.29035000  1.81137000  1
  Mo  Mo3  1  7.28224000  1.81976000  1.81501000  1
  Mo  Mo4  1  3.63624000  7.26969000  3.64374000  1
  Mo  Mo5  1  5.45088000  1.81087000  0.00089410  1
  Mo  Mo6  1  5.46831000  -0.00607208  1.82286000  1
  Mo  Mo7  1  3.64126000  1.83303000  1.82859000  1
  Mo  Mo8  1  7.28114000  3.64893000  3.63951000  1
  Mo  Mo9  1  1.82499000  5.45854000  3.64744000  1
  Mo  Mo10  1  1.80616000  3.64316000  1.83017000  1
  Mo  Mo11  1  7.26968000  5.45993000  1.81404000  1
  Mo  Mo12  1  3.63552000  3.63428000  0.00612993  1
  Mo  Mo13  1  5.45247000  5.45267000  3.63852000  1
  Mo  Mo14  1  5.45964000  3.64087000  1.81669000  1
  Mo  Mo15  1  3.63897000  5.45827000  1.81066000  1
