# generated using pymatgen
data_Mo
_symmetry_space_group_name_H-M   'P 1'
_cell_length_a   7.27788804
_cell_length_b   7.27788804
_cell_length_c   3.63894391
_cell_angle_alpha   90.00000000
_cell_angle_beta   90.00000000
_cell_angle_gamma   90.00000000
_symmetry_Int_Tables_number   1
_chemical_formula_structural   Mo
_chemical_formula_sum   Mo16
_cell_volume   192.74632321
_cell_formula_units_Z   16
loop_
 _symmetry_equiv_pos_site_id
 _symmetry_equiv_pos_as_xyz
  1  'x, y, z'
loop_
 _atom_site_type_symbol
 _atom_site_label
 _atom_site_symmetry_multiplicity
 _atom_site_fract_x
 _atom_site_fract_y
 _atom_site_fract_z
 _atom_site_occupancy
  Mo  Mo0  1  0.00032556  -0.00811843  0.00112480  1
  Mo  Mo1  1  1.83784000  1.83476000  3.64160000  1
  Mo  Mo2  1  1.85750000  -0.04781740  1.79661000  1
  Mo  Mo3  1  -0.01042650  1.83765000  1.83837000  1
  Mo  Mo4  1  3.63352000  0.02972610  3.61593000  1
  Mo  Mo5  1  5.46845000  1.83438000  0.02961660  1
  Mo  Mo6  1  5.47923000  7.27650000  1.79482000  1
  Mo  Mo7  1  3.64709000  1.79597000  1.83134000  1
  Mo  Mo8  1  -0.00696144  3.59897000  -0.01035250  1
  Mo  Mo9  1  1.81500000  5.48103000  -0.01540610  1
  Mo  Mo10  1  1.80815000  3.66237000  1.77161000  1
  Mo  Mo11  1  7.28127000  5.46468000  1.81896000  1
  Mo  Mo12  1  3.62259000  3.61573000  3.68060000  1
  Mo  Mo13  1  5.49450000  5.45874000  0.00376727  1
  Mo  Mo14  1  5.41267000  3.67587000  1.85115000  1
  Mo  Mo15  1  3.60538000  5.43567000  1.82331000  1
