# generated using pymatgen
data_Mo
_symmetry_space_group_name_H-M   'P 1'
_cell_length_a   7.27788804
_cell_length_b   7.27788804
_cell_length_c   3.63894391
_cell_angle_alpha   90.00000000
_cell_angle_beta   90.00000000
_cell_angle_gamma   90.00000000
_symmetry_Int_Tables_number   1
_chemical_formula_structural   Mo
_chemical_formula_sum   Mo16
_cell_volume   192.74632321
_cell_formula_units_Z   16
loop_
 _symmetry_equiv_pos_site_id
 _symmetry_equiv_pos_as_xyz
  1  'x, y, z'
loop_
 _atom_site_type_symbol
 _atom_site_label
 _atom_site_symmetry_multiplicity
 _atom_site_fract_x
 _atom_site_fract_y
 _atom_site_fract_z
 _atom_site_occupancy
  Mo  Mo0  1  0.02371450  0.02356550  0.00196967  1
  Mo  Mo1  1  1.81479000  1.86073000  3.63627000  1
  Mo  Mo2  1  1.83165000  0.00658986  1.82010000  1
  Mo  Mo3  1  0.00006785  1.80607000  1.83660000  1
  Mo  Mo4  1  3.62651000  0.00390999  3.62247000  1
  Mo  Mo5  1  5.46799000  1.83294000  0.00856527  1
  Mo  Mo6  1  5.43796000  7.27506000  1.80601000  1
  Mo  Mo7  1  3.67501000  1.77226000  1.79308000  1
  Mo  Mo8  1  0.00718098  3.62918000  0.00163198  1
  Mo  Mo9  1  1.77438000  5.46071000  0.00302328  1
  Mo  Mo10  1  1.83528000  3.63229000  1.82875000  1
  Mo  Mo11  1  7.26246000  5.45490000  1.80531000  1
  Mo  Mo12  1  3.62529000  3.61457000  3.62844000  1
  Mo  Mo13  1  5.43967000  5.47968000  0.01508650  1
  Mo  Mo14  1  5.45939000  3.63822000  1.85443000  1
  Mo  Mo15  1  3.66477000  5.45544000  1.81130000  1
