# generated using pymatgen
data_Mo
_symmetry_space_group_name_H-M   'P 1'
_cell_length_a   7.27788804
_cell_length_b   7.27788804
_cell_length_c   3.63894391
_cell_angle_alpha   90.00000000
_cell_angle_beta   90.00000000
_cell_angle_gamma   90.00000000
_symmetry_Int_Tables_number   1
_chemical_formula_structural   Mo
_chemical_formula_sum   Mo16
_cell_volume   192.74632321
_cell_formula_units_Z   16
loop_
 _symmetry_equiv_pos_site_id
 _symmetry_equiv_pos_as_xyz
  1  'x, y, z'
loop_
 _atom_site_type_symbol
 _atom_site_label
 _atom_site_symmetry_multiplicity
 _atom_site_fract_x
 _atom_site_fract_y
 _atom_site_fract_z
 _atom_site_occupancy
  Mo  Mo0  1  -0.01620770  0.02379950  0.00361938  1
  Mo  Mo1  1  1.81249000  1.83561000  3.64017000  1
  Mo  Mo2  1  1.84084000  0.00934521  1.84051000  1
  Mo  Mo3  1  -0.00123054  1.83316000  1.80063000  1
  Mo  Mo4  1  3.64132000  -0.01917260  3.65435000  1
  Mo  Mo5  1  5.47470000  1.81673000  0.01549830  1
  Mo  Mo6  1  5.47447000  7.27331000  1.81730000  1
  Mo  Mo7  1  3.65031000  1.82344000  1.86786000  1
  Mo  Mo8  1  0.00080572  3.65725000  0.02423000  1
  Mo  Mo9  1  1.81793000  5.47344000  -0.03960030  1
  Mo  Mo10  1  1.80792000  3.61030000  1.78832000  1
  Mo  Mo11  1  7.24973000  5.43862000  1.78564000  1
  Mo  Mo12  1  3.64615000  3.63102000  3.62048000  1
  Mo  Mo13  1  5.44023000  5.45232000  -0.02215050  1
  Mo  Mo14  1  5.47739000  3.61662000  1.84583000  1
  Mo  Mo15  1  3.62926000  5.47033000  1.83038000  1
