# generated using pymatgen
data_Mo
_symmetry_space_group_name_H-M   'P 1'
_cell_length_a   7.27788804
_cell_length_b   7.27788804
_cell_length_c   3.63894391
_cell_angle_alpha   90.00000000
_cell_angle_beta   90.00000000
_cell_angle_gamma   90.00000000
_symmetry_Int_Tables_number   1
_chemical_formula_structural   Mo
_chemical_formula_sum   Mo16
_cell_volume   192.74632321
_cell_formula_units_Z   16
loop_
 _symmetry_equiv_pos_site_id
 _symmetry_equiv_pos_as_xyz
  1  'x, y, z'
loop_
 _atom_site_type_symbol
 _atom_site_label
 _atom_site_symmetry_multiplicity
 _atom_site_fract_x
 _atom_site_fract_y
 _atom_site_fract_z
 _atom_site_occupancy
  Mo  Mo0  1  -0.01598670  -0.01374170  0.01991190  1
  Mo  Mo1  1  1.82788000  1.82576000  3.64263000  1
  Mo  Mo2  1  1.82904000  -0.01178230  1.80742000  1
  Mo  Mo3  1  -0.02805960  1.79350000  1.78694000  1
  Mo  Mo4  1  3.63251000  -0.02543260  3.61824000  1
  Mo  Mo5  1  5.44840000  1.85093000  -0.02717140  1
  Mo  Mo6  1  5.50492000  7.31804000  1.82490000  1
  Mo  Mo7  1  3.64443000  1.82601000  1.82970000  1
  Mo  Mo8  1  0.00670726  3.69334000  0.02713720  1
  Mo  Mo9  1  1.81697000  5.44564000  0.02355390  1
  Mo  Mo10  1  1.81368000  3.58507000  1.85436000  1
  Mo  Mo11  1  7.27150000  5.47938000  1.79053000  1
  Mo  Mo12  1  3.63594000  3.63164000  3.65862000  1
  Mo  Mo13  1  5.46230000  5.45831000  -0.02618330  1
  Mo  Mo14  1  5.47013000  3.61246000  1.79115000  1
  Mo  Mo15  1  3.62576000  5.47697000  1.85133000  1
