# generated using pymatgen
data_Mo
_symmetry_space_group_name_H-M   'P 1'
_cell_length_a   7.27788804
_cell_length_b   7.27788804
_cell_length_c   3.63894391
_cell_angle_alpha   90.00000000
_cell_angle_beta   90.00000000
_cell_angle_gamma   90.00000000
_symmetry_Int_Tables_number   1
_chemical_formula_structural   Mo
_chemical_formula_sum   Mo16
_cell_volume   192.74632321
_cell_formula_units_Z   16
loop_
 _symmetry_equiv_pos_site_id
 _symmetry_equiv_pos_as_xyz
  1  'x, y, z'
loop_
 _atom_site_type_symbol
 _atom_site_label
 _atom_site_symmetry_multiplicity
 _atom_site_fract_x
 _atom_site_fract_y
 _atom_site_fract_z
 _atom_site_occupancy
  Mo  Mo0  1  -0.01362120  -0.00333279  0.02022310  1
  Mo  Mo1  1  1.81275000  1.83363000  3.64476000  1
  Mo  Mo2  1  1.80379000  0.00913228  1.84326000  1
  Mo  Mo3  1  -0.00967008  1.82114000  1.77412000  1
  Mo  Mo4  1  3.60274000  -0.02441510  3.63845000  1
  Mo  Mo5  1  5.43608000  1.79647000  -0.00304078  1
  Mo  Mo6  1  5.48115000  7.30946000  1.85315000  1
  Mo  Mo7  1  3.64923000  1.83160000  1.80014000  1
  Mo  Mo8  1  0.00662256  3.66340000  0.04590180  1
  Mo  Mo9  1  1.82749000  5.45749000  0.00359657  1
  Mo  Mo10  1  1.82267000  3.60907000  1.85119000  1
  Mo  Mo11  1  7.28692000  5.44556000  1.81260000  1
  Mo  Mo12  1  3.66734000  3.64899000  3.57588000  1
  Mo  Mo13  1  5.45665000  5.45805000  -0.00526608  1
  Mo  Mo14  1  5.47982000  3.59036000  1.79906000  1
  Mo  Mo15  1  3.63617000  5.49950000  1.81903000  1
