# generated using pymatgen
data_Mo
_symmetry_space_group_name_H-M   'P 1'
_cell_length_a   7.27788804
_cell_length_b   7.27788804
_cell_length_c   3.63894391
_cell_angle_alpha   90.00000000
_cell_angle_beta   90.00000000
_cell_angle_gamma   90.00000000
_symmetry_Int_Tables_number   1
_chemical_formula_structural   Mo
_chemical_formula_sum   Mo16
_cell_volume   192.74632321
_cell_formula_units_Z   16
loop_
 _symmetry_equiv_pos_site_id
 _symmetry_equiv_pos_as_xyz
  1  'x, y, z'
loop_
 _atom_site_type_symbol
 _atom_site_label
 _atom_site_symmetry_multiplicity
 _atom_site_fract_x
 _atom_site_fract_y
 _atom_site_fract_z
 _atom_site_occupancy
  Mo  Mo0  1  0.00995295  -0.00755526  -0.02046590  1
  Mo  Mo1  1  1.83208000  1.80601000  3.62856000  1
  Mo  Mo2  1  1.82490000  0.01625440  1.80125000  1
  Mo  Mo3  1  0.00695168  1.79662000  1.80735000  1
  Mo  Mo4  1  3.64740000  -0.00768119  3.62621000  1
  Mo  Mo5  1  5.43831000  1.82362000  0.01957640  1
  Mo  Mo6  1  5.48207000  7.33296000  1.81116000  1
  Mo  Mo7  1  3.66060000  1.79235000  1.83303000  1
  Mo  Mo8  1  0.01505100  3.65976000  0.01595780  1
  Mo  Mo9  1  1.81224000  5.48898000  -0.02953850  1
  Mo  Mo10  1  1.76774000  3.61676000  1.82482000  1
  Mo  Mo11  1  7.29292000  5.45857000  1.81072000  1
  Mo  Mo12  1  3.63224000  3.64745000  3.65109000  1
  Mo  Mo13  1  5.46584000  5.45831000  0.00251277  1
  Mo  Mo14  1  5.44040000  3.62227000  1.83839000  1
  Mo  Mo15  1  3.61742000  5.44144000  1.85244000  1
