# generated using pymatgen
data_Mo
_symmetry_space_group_name_H-M   'P 1'
_cell_length_a   7.27788804
_cell_length_b   7.27788804
_cell_length_c   3.63894391
_cell_angle_alpha   90.00000000
_cell_angle_beta   90.00000000
_cell_angle_gamma   90.00000000
_symmetry_Int_Tables_number   1
_chemical_formula_structural   Mo
_chemical_formula_sum   Mo16
_cell_volume   192.74632321
_cell_formula_units_Z   16
loop_
 _symmetry_equiv_pos_site_id
 _symmetry_equiv_pos_as_xyz
  1  'x, y, z'
loop_
 _atom_site_type_symbol
 _atom_site_label
 _atom_site_symmetry_multiplicity
 _atom_site_fract_x
 _atom_site_fract_y
 _atom_site_fract_z
 _atom_site_occupancy
  Mo  Mo0  1  0.02395970  -0.01842990  0.00361228  1
  Mo  Mo1  1  1.82217000  1.84894000  3.62231000  1
  Mo  Mo2  1  1.79432000  0.03013840  1.80062000  1
  Mo  Mo3  1  0.01339880  1.79728000  1.83261000  1
  Mo  Mo4  1  3.63637000  -0.01116430  3.68267000  1
  Mo  Mo5  1  5.44898000  1.82825000  0.03773530  1
  Mo  Mo6  1  5.45479000  7.26205000  1.82483000  1
  Mo  Mo7  1  3.63377000  1.80096000  1.83249000  1
  Mo  Mo8  1  0.00524068  3.66585000  0.01848390  1
  Mo  Mo9  1  1.82724000  5.45433000  -0.04083330  1
  Mo  Mo10  1  1.83755000  3.64235000  1.80523000  1
  Mo  Mo11  1  7.26255000  5.45314000  1.82962000  1
  Mo  Mo12  1  3.64276000  3.67281000  3.60867000  1
  Mo  Mo13  1  5.44419000  5.44290000  -0.00153353  1
  Mo  Mo14  1  5.45757000  3.60813000  1.80582000  1
  Mo  Mo15  1  3.64127000  5.46857000  1.81071000  1
