# generated using pymatgen
data_Mo
_symmetry_space_group_name_H-M   'P 1'
_cell_length_a   7.27788804
_cell_length_b   7.27788804
_cell_length_c   3.63894391
_cell_angle_alpha   90.00000000
_cell_angle_beta   90.00000000
_cell_angle_gamma   90.00000000
_symmetry_Int_Tables_number   1
_chemical_formula_structural   Mo
_chemical_formula_sum   Mo16
_cell_volume   192.74632321
_cell_formula_units_Z   16
loop_
 _symmetry_equiv_pos_site_id
 _symmetry_equiv_pos_as_xyz
  1  'x, y, z'
loop_
 _atom_site_type_symbol
 _atom_site_label
 _atom_site_symmetry_multiplicity
 _atom_site_fract_x
 _atom_site_fract_y
 _atom_site_fract_z
 _atom_site_occupancy
  Mo  Mo0  1  0.00034344  -0.03636830  -0.00537198  1
  Mo  Mo1  1  1.80196000  1.81408000  3.63518000  1
  Mo  Mo2  1  1.83562000  -0.03012860  1.82445000  1
  Mo  Mo3  1  0.01921090  1.87548000  1.81603000  1
  Mo  Mo4  1  3.62389000  0.01487280  3.62440000  1
  Mo  Mo5  1  5.41686000  1.79355000  0.02043550  1
  Mo  Mo6  1  5.49479000  7.28872000  1.83758000  1
  Mo  Mo7  1  3.62363000  1.84438000  1.84151000  1
  Mo  Mo8  1  -0.01854680  3.63431000  -0.03287780  1
  Mo  Mo9  1  1.85289000  5.43903000  -0.02884980  1
  Mo  Mo10  1  1.79250000  3.63395000  1.83604000  1
  Mo  Mo11  1  7.30326000  5.46617000  1.83096000  1
  Mo  Mo12  1  3.67485000  3.67081000  3.65982000  1
  Mo  Mo13  1  5.47450000  5.45355000  -0.00844544  1
  Mo  Mo14  1  5.44716000  3.63081000  1.81598000  1
  Mo  Mo15  1  3.60320000  5.45289000  1.80622000  1
