# generated using pymatgen
data_Mo
_symmetry_space_group_name_H-M   'P 1'
_cell_length_a   7.27808089
_cell_length_b   7.27808089
_cell_length_c   3.63904047
_cell_angle_alpha   90.00000000
_cell_angle_beta   90.00000000
_cell_angle_gamma   90.00000000
_symmetry_Int_Tables_number   1
_chemical_formula_structural   Mo
_chemical_formula_sum   Mo16
_cell_volume   192.76165285
_cell_formula_units_Z   16
loop_
 _symmetry_equiv_pos_site_id
 _symmetry_equiv_pos_as_xyz
  1  'x, y, z'
loop_
 _atom_site_type_symbol
 _atom_site_label
 _atom_site_symmetry_multiplicity
 _atom_site_fract_x
 _atom_site_fract_y
 _atom_site_fract_z
 _atom_site_occupancy
  Mo  Mo0  1  -0.00813157  7.27533000  0.00718791  1
  Mo  Mo1  1  1.82369000  1.80853000  -0.00654392  1
  Mo  Mo2  1  1.80669000  7.28591000  1.81695000  1
  Mo  Mo3  1  7.27640000  1.81642000  1.82560000  1
  Mo  Mo4  1  3.63576000  7.27633000  3.64372000  1
  Mo  Mo5  1  5.44925000  1.82019000  -0.00108489  1
  Mo  Mo6  1  5.46674000  0.01899370  1.82860000  1
  Mo  Mo7  1  3.64754000  1.81927000  1.82308000  1
  Mo  Mo8  1  7.28325000  3.64005000  3.64234000  1
  Mo  Mo9  1  1.82234000  5.45681000  3.64181000  1
  Mo  Mo10  1  1.81610000  3.63820000  1.82422000  1
  Mo  Mo11  1  7.27069000  5.45468000  1.82336000  1
  Mo  Mo12  1  3.64303000  3.62639000  -0.01050450  1
  Mo  Mo13  1  5.45819000  5.46382000  3.63756000  1
  Mo  Mo14  1  5.46329000  3.64056000  1.81489000  1
  Mo  Mo15  1  3.64725000  5.46060000  1.80082000  1
