# generated using pymatgen
data_Mo
_symmetry_space_group_name_H-M   'P 1'
_cell_length_a   7.27788804
_cell_length_b   7.27788804
_cell_length_c   3.63894391
_cell_angle_alpha   90.00000000
_cell_angle_beta   90.00000000
_cell_angle_gamma   90.00000000
_symmetry_Int_Tables_number   1
_chemical_formula_structural   Mo
_chemical_formula_sum   Mo16
_cell_volume   192.74632321
_cell_formula_units_Z   16
loop_
 _symmetry_equiv_pos_site_id
 _symmetry_equiv_pos_as_xyz
  1  'x, y, z'
loop_
 _atom_site_type_symbol
 _atom_site_label
 _atom_site_symmetry_multiplicity
 _atom_site_fract_x
 _atom_site_fract_y
 _atom_site_fract_z
 _atom_site_occupancy
  Mo  Mo0  1  -0.01147140  0.01062150  0.01245860  1
  Mo  Mo1  1  1.82001000  1.82355000  3.66193000  1
  Mo  Mo2  1  1.83516000  0.01003960  1.82612000  1
  Mo  Mo3  1  -0.01955940  1.82242000  1.82474000  1
  Mo  Mo4  1  3.62168000  -0.02300900  3.63265000  1
  Mo  Mo5  1  5.44740000  1.84892000  -0.01166480  1
  Mo  Mo6  1  5.46279000  7.30505000  1.83725000  1
  Mo  Mo7  1  3.65154000  1.82336000  1.80795000  1
  Mo  Mo8  1  0.01399820  3.64495000  -0.02613550  1
  Mo  Mo9  1  1.82102000  5.41964000  0.03617510  1
  Mo  Mo10  1  1.82380000  3.59823000  1.85057000  1
  Mo  Mo11  1  7.26521000  5.51245000  1.79943000  1
  Mo  Mo12  1  3.63152000  3.62345000  3.66367000  1
  Mo  Mo13  1  5.42509000  5.41679000  -0.03361240  1
  Mo  Mo14  1  5.49753000  3.62635000  1.77879000  1
  Mo  Mo15  1  3.66040000  5.48329000  1.81274000  1
