# generated using pymatgen
data_Mo
_symmetry_space_group_name_H-M   'P 1'
_cell_length_a   7.27788804
_cell_length_b   7.27788804
_cell_length_c   3.63894391
_cell_angle_alpha   90.00000000
_cell_angle_beta   90.00000000
_cell_angle_gamma   90.00000000
_symmetry_Int_Tables_number   1
_chemical_formula_structural   Mo
_chemical_formula_sum   Mo16
_cell_volume   192.74632321
_cell_formula_units_Z   16
loop_
 _symmetry_equiv_pos_site_id
 _symmetry_equiv_pos_as_xyz
  1  'x, y, z'
loop_
 _atom_site_type_symbol
 _atom_site_label
 _atom_site_symmetry_multiplicity
 _atom_site_fract_x
 _atom_site_fract_y
 _atom_site_fract_z
 _atom_site_occupancy
  Mo  Mo0  1  -0.01251270  0.03007410  -0.01918550  1
  Mo  Mo1  1  1.79082000  1.77040000  3.63406000  1
  Mo  Mo2  1  1.85300000  -0.02475780  1.84528000  1
  Mo  Mo3  1  0.00470396  1.82281000  1.80007000  1
  Mo  Mo4  1  3.63934000  0.00396943  3.62823000  1
  Mo  Mo5  1  5.44877000  1.79219000  -0.04602500  1
  Mo  Mo6  1  5.45435000  7.27113000  1.83077000  1
  Mo  Mo7  1  3.61327000  1.86172000  1.82214000  1
  Mo  Mo8  1  0.01913620  3.64290000  0.03291100  1
  Mo  Mo9  1  1.80187000  5.47596000  0.04767990  1
  Mo  Mo10  1  1.82548000  3.63866000  1.82360000  1
  Mo  Mo11  1  7.32140000  5.43603000  1.82131000  1
  Mo  Mo12  1  3.65385000  3.62850000  3.63038000  1
  Mo  Mo13  1  5.44100000  5.46210000  -0.03017360  1
  Mo  Mo14  1  5.44323000  3.67884000  1.82280000  1
  Mo  Mo15  1  3.64841000  5.45558000  1.82921000  1
