# generated using pymatgen
data_Mo
_symmetry_space_group_name_H-M   'P 1'
_cell_length_a   7.27788804
_cell_length_b   7.27788804
_cell_length_c   3.63894391
_cell_angle_alpha   90.00000000
_cell_angle_beta   90.00000000
_cell_angle_gamma   90.00000000
_symmetry_Int_Tables_number   1
_chemical_formula_structural   Mo
_chemical_formula_sum   Mo16
_cell_volume   192.74632321
_cell_formula_units_Z   16
loop_
 _symmetry_equiv_pos_site_id
 _symmetry_equiv_pos_as_xyz
  1  'x, y, z'
loop_
 _atom_site_type_symbol
 _atom_site_label
 _atom_site_symmetry_multiplicity
 _atom_site_fract_x
 _atom_site_fract_y
 _atom_site_fract_z
 _atom_site_occupancy
  Mo  Mo0  1  0.00840343  -0.00361740  -0.00757318  1
  Mo  Mo1  1  1.80104000  1.77240000  3.64311000  1
  Mo  Mo2  1  1.78991000  -0.01681230  1.81897000  1
  Mo  Mo3  1  0.00004199  1.82974000  1.84008000  1
  Mo  Mo4  1  3.66509000  0.04486220  3.61929000  1
  Mo  Mo5  1  5.45820000  1.81442000  -0.02281140  1
  Mo  Mo6  1  5.43588000  7.27156000  1.79971000  1
  Mo  Mo7  1  3.64345000  1.82696000  1.78067000  1
  Mo  Mo8  1  -0.00889919  3.60759000  -0.04787300  1
  Mo  Mo9  1  1.81270000  5.46402000  0.01965320  1
  Mo  Mo10  1  1.82499000  3.67144000  1.86175000  1
  Mo  Mo11  1  7.30647000  5.46066000  1.85688000  1
  Mo  Mo12  1  3.63559000  3.62002000  3.66378000  1
  Mo  Mo13  1  5.48661000  5.48758000  0.01755880  1
  Mo  Mo14  1  5.44078000  3.67843000  1.80090000  1
  Mo  Mo15  1  3.64587000  5.41686000  1.82898000  1
