# generated using pymatgen
data_Mo
_symmetry_space_group_name_H-M   'P 1'
_cell_length_a   7.27788804
_cell_length_b   7.27788804
_cell_length_c   3.63894391
_cell_angle_alpha   90.00000000
_cell_angle_beta   90.00000000
_cell_angle_gamma   90.00000000
_symmetry_Int_Tables_number   1
_chemical_formula_structural   Mo
_chemical_formula_sum   Mo16
_cell_volume   192.74632321
_cell_formula_units_Z   16
loop_
 _symmetry_equiv_pos_site_id
 _symmetry_equiv_pos_as_xyz
  1  'x, y, z'
loop_
 _atom_site_type_symbol
 _atom_site_label
 _atom_site_symmetry_multiplicity
 _atom_site_fract_x
 _atom_site_fract_y
 _atom_site_fract_z
 _atom_site_occupancy
  Mo  Mo0  1  0.00184082  -0.00320385  -0.00950544  1
  Mo  Mo1  1  1.80103000  1.84424000  3.62585000  1
  Mo  Mo2  1  1.83608000  0.00825417  1.80419000  1
  Mo  Mo3  1  0.02036740  1.86126000  1.81639000  1
  Mo  Mo4  1  3.61185000  0.01031640  3.63130000  1
  Mo  Mo5  1  5.45178000  1.79168000  0.01151380  1
  Mo  Mo6  1  5.45413000  7.26391000  1.82355000  1
  Mo  Mo7  1  3.68201000  1.80484000  1.81276000  1
  Mo  Mo8  1  0.03776750  3.62697000  0.01803030  1
  Mo  Mo9  1  1.81753000  5.40932000  -0.01515970  1
  Mo  Mo10  1  1.80565000  3.62193000  1.83478000  1
  Mo  Mo11  1  7.21633000  5.49398000  1.85150000  1
  Mo  Mo12  1  3.66435000  3.65508000  3.64311000  1
  Mo  Mo13  1  5.47131000  5.43775000  0.00813718  1
  Mo  Mo14  1  5.42439000  3.64242000  1.80682000  1
  Mo  Mo15  1  3.64969000  5.47736000  1.80981000  1
