# generated using pymatgen
data_Mo
_symmetry_space_group_name_H-M   'P 1'
_cell_length_a   7.27788804
_cell_length_b   7.27788804
_cell_length_c   3.63894391
_cell_angle_alpha   90.00000000
_cell_angle_beta   90.00000000
_cell_angle_gamma   90.00000000
_symmetry_Int_Tables_number   1
_chemical_formula_structural   Mo
_chemical_formula_sum   Mo16
_cell_volume   192.74632321
_cell_formula_units_Z   16
loop_
 _symmetry_equiv_pos_site_id
 _symmetry_equiv_pos_as_xyz
  1  'x, y, z'
loop_
 _atom_site_type_symbol
 _atom_site_label
 _atom_site_symmetry_multiplicity
 _atom_site_fract_x
 _atom_site_fract_y
 _atom_site_fract_z
 _atom_site_occupancy
  Mo  Mo0  1  0.03514810  -0.00841513  -0.03881400  1
  Mo  Mo1  1  1.82894000  1.80418000  3.63391000  1
  Mo  Mo2  1  1.81819000  -0.00470765  1.78587000  1
  Mo  Mo3  1  -0.00101129  1.84201000  1.82587000  1
  Mo  Mo4  1  3.63468000  -0.02999280  3.67344000  1
  Mo  Mo5  1  5.47826000  1.83472000  -0.01545750  1
  Mo  Mo6  1  5.46479000  7.28571000  1.79043000  1
  Mo  Mo7  1  3.61566000  1.78798000  1.82467000  1
  Mo  Mo8  1  -0.02616690  3.64016000  0.00626953  1
  Mo  Mo9  1  1.84585000  5.44993000  0.01175630  1
  Mo  Mo10  1  1.82178000  3.62244000  1.85440000  1
  Mo  Mo11  1  7.26978000  5.45944000  1.84463000  1
  Mo  Mo12  1  3.61558000  3.65178000  3.65754000  1
  Mo  Mo13  1  5.45121000  5.51432000  0.00060606  1
  Mo  Mo14  1  5.47309000  3.62824000  1.78509000  1
  Mo  Mo15  1  3.62033000  5.46830000  1.83285000  1
