# generated using pymatgen
data_Mo
_symmetry_space_group_name_H-M   'P 1'
_cell_length_a   7.27788804
_cell_length_b   7.27788804
_cell_length_c   3.63894391
_cell_angle_alpha   90.00000000
_cell_angle_beta   90.00000000
_cell_angle_gamma   90.00000000
_symmetry_Int_Tables_number   1
_chemical_formula_structural   Mo
_chemical_formula_sum   Mo16
_cell_volume   192.74632321
_cell_formula_units_Z   16
loop_
 _symmetry_equiv_pos_site_id
 _symmetry_equiv_pos_as_xyz
  1  'x, y, z'
loop_
 _atom_site_type_symbol
 _atom_site_label
 _atom_site_symmetry_multiplicity
 _atom_site_fract_x
 _atom_site_fract_y
 _atom_site_fract_z
 _atom_site_occupancy
  Mo  Mo0  1  0.00276162  0.01049900  0.01980620  1
  Mo  Mo1  1  1.82424000  1.85751000  3.64534000  1
  Mo  Mo2  1  1.80682000  0.02292080  1.84459000  1
  Mo  Mo3  1  0.00076851  1.79791000  1.79327000  1
  Mo  Mo4  1  3.64270000  -0.01340510  3.63387000  1
  Mo  Mo5  1  5.46681000  1.83263000  -0.03751440  1
  Mo  Mo6  1  5.44253000  7.28078000  1.82810000  1
  Mo  Mo7  1  3.65038000  1.79761000  1.82104000  1
  Mo  Mo8  1  -0.01558860  3.63596000  -0.03150070  1
  Mo  Mo9  1  1.78815000  5.46789000  0.04109310  1
  Mo  Mo10  1  1.84976000  3.61202000  1.85570000  1
  Mo  Mo11  1  7.27040000  5.44974000  1.84237000  1
  Mo  Mo12  1  3.64648000  3.62141000  3.61832000  1
  Mo  Mo13  1  5.42712000  5.49204000  -0.00564185  1
  Mo  Mo14  1  5.47082000  3.62896000  1.79571000  1
  Mo  Mo15  1  3.67198000  5.45164000  1.80850000  1
