# generated using pymatgen
data_Mo
_symmetry_space_group_name_H-M   'P 1'
_cell_length_a   7.27788804
_cell_length_b   7.27788804
_cell_length_c   3.63894391
_cell_angle_alpha   90.00000000
_cell_angle_beta   90.00000000
_cell_angle_gamma   90.00000000
_symmetry_Int_Tables_number   1
_chemical_formula_structural   Mo
_chemical_formula_sum   Mo16
_cell_volume   192.74632321
_cell_formula_units_Z   16
loop_
 _symmetry_equiv_pos_site_id
 _symmetry_equiv_pos_as_xyz
  1  'x, y, z'
loop_
 _atom_site_type_symbol
 _atom_site_label
 _atom_site_symmetry_multiplicity
 _atom_site_fract_x
 _atom_site_fract_y
 _atom_site_fract_z
 _atom_site_occupancy
  Mo  Mo0  1  0.05882970  -0.00852353  -0.01863110  1
  Mo  Mo1  1  1.80927000  1.86740000  3.63747000  1
  Mo  Mo2  1  1.81796000  0.00250761  1.76322000  1
  Mo  Mo3  1  -0.03255620  1.77898000  1.81901000  1
  Mo  Mo4  1  3.62219000  -0.01065530  3.65518000  1
  Mo  Mo5  1  5.46990000  1.84621000  0.02412080  1
  Mo  Mo6  1  5.43146000  7.26779000  1.83468000  1
  Mo  Mo7  1  3.62372000  1.81242000  1.84960000  1
  Mo  Mo8  1  0.00329461  3.65048000  0.03074280  1
  Mo  Mo9  1  1.81223000  5.43016000  -0.02045640  1
  Mo  Mo10  1  1.82647000  3.66177000  1.81060000  1
  Mo  Mo11  1  7.29316000  5.40693000  1.79373000  1
  Mo  Mo12  1  3.60089000  3.63418000  3.63926000  1
  Mo  Mo13  1  5.47176000  5.47412000  0.00948967  1
  Mo  Mo14  1  5.45026000  3.64975000  1.83590000  1
  Mo  Mo15  1  3.68727000  5.48259000  1.80914000  1
