# generated using pymatgen
data_Mo
_symmetry_space_group_name_H-M   'P 1'
_cell_length_a   7.27788804
_cell_length_b   7.27788804
_cell_length_c   3.63894391
_cell_angle_alpha   90.00000000
_cell_angle_beta   90.00000000
_cell_angle_gamma   90.00000000
_symmetry_Int_Tables_number   1
_chemical_formula_structural   Mo
_chemical_formula_sum   Mo16
_cell_volume   192.74632321
_cell_formula_units_Z   16
loop_
 _symmetry_equiv_pos_site_id
 _symmetry_equiv_pos_as_xyz
  1  'x, y, z'
loop_
 _atom_site_type_symbol
 _atom_site_label
 _atom_site_symmetry_multiplicity
 _atom_site_fract_x
 _atom_site_fract_y
 _atom_site_fract_z
 _atom_site_occupancy
  Mo  Mo0  1  -0.01680450  -0.00414322  0.00627306  1
  Mo  Mo1  1  1.81952000  1.82552000  3.63908000  1
  Mo  Mo2  1  1.81451000  -0.02483770  1.84857000  1
  Mo  Mo3  1  0.00923425  1.82794000  1.82424000  1
  Mo  Mo4  1  3.60665000  0.03079440  3.62908000  1
  Mo  Mo5  1  5.45260000  1.77060000  0.00406024  1
  Mo  Mo6  1  5.46241000  7.25090000  1.84883000  1
  Mo  Mo7  1  3.62790000  1.84605000  1.80954000  1
  Mo  Mo8  1  0.01056930  3.62109000  0.01328690  1
  Mo  Mo9  1  1.80806000  5.47955000  0.01043110  1
  Mo  Mo10  1  1.84968000  3.68388000  1.78254000  1
  Mo  Mo11  1  7.29647000  5.44756000  1.82033000  1
  Mo  Mo12  1  3.65791000  3.61412000  3.59632000  1
  Mo  Mo13  1  5.47315000  5.45282000  0.00239800  1
  Mo  Mo14  1  5.43366000  3.66501000  1.84632000  1
  Mo  Mo15  1  3.64057000  5.45925000  1.79175000  1
