# generated using pymatgen
data_Mo
_symmetry_space_group_name_H-M   'P 1'
_cell_length_a   7.27788804
_cell_length_b   7.27788804
_cell_length_c   3.63894391
_cell_angle_alpha   90.00000000
_cell_angle_beta   90.00000000
_cell_angle_gamma   90.00000000
_symmetry_Int_Tables_number   1
_chemical_formula_structural   Mo
_chemical_formula_sum   Mo16
_cell_volume   192.74632321
_cell_formula_units_Z   16
loop_
 _symmetry_equiv_pos_site_id
 _symmetry_equiv_pos_as_xyz
  1  'x, y, z'
loop_
 _atom_site_type_symbol
 _atom_site_label
 _atom_site_symmetry_multiplicity
 _atom_site_fract_x
 _atom_site_fract_y
 _atom_site_fract_z
 _atom_site_occupancy
  Mo  Mo0  1  -0.00168409  0.03110090  -0.00296372  1
  Mo  Mo1  1  1.86393000  1.85039000  3.64818000  1
  Mo  Mo2  1  1.79187000  0.01409480  1.82238000  1
  Mo  Mo3  1  0.01098160  1.80928000  1.81869000  1
  Mo  Mo4  1  3.64577000  -0.02707680  3.66160000  1
  Mo  Mo5  1  5.49365000  1.81869000  -0.03440030  1
  Mo  Mo6  1  5.44757000  7.26408000  1.81740000  1
  Mo  Mo7  1  3.61627000  1.81393000  1.79869000  1
  Mo  Mo8  1  -0.04112530  3.65707000  0.03342580  1
  Mo  Mo9  1  1.79585000  5.45795000  0.03908690  1
  Mo  Mo10  1  1.85580000  3.65021000  1.82359000  1
  Mo  Mo11  1  7.27426000  5.41428000  1.81796000  1
  Mo  Mo12  1  3.64235000  3.61264000  3.59523000  1
  Mo  Mo13  1  5.42121000  5.49426000  0.00087201  1
  Mo  Mo14  1  5.48774000  3.65494000  1.80739000  1
  Mo  Mo15  1  3.64169000  5.43028000  1.82592000  1
