# generated using pymatgen
data_Mo
_symmetry_space_group_name_H-M   'P 1'
_cell_length_a   7.27788804
_cell_length_b   7.27788804
_cell_length_c   3.63894391
_cell_angle_alpha   90.00000000
_cell_angle_beta   90.00000000
_cell_angle_gamma   90.00000000
_symmetry_Int_Tables_number   1
_chemical_formula_structural   Mo
_chemical_formula_sum   Mo16
_cell_volume   192.74632321
_cell_formula_units_Z   16
loop_
 _symmetry_equiv_pos_site_id
 _symmetry_equiv_pos_as_xyz
  1  'x, y, z'
loop_
 _atom_site_type_symbol
 _atom_site_label
 _atom_site_symmetry_multiplicity
 _atom_site_fract_x
 _atom_site_fract_y
 _atom_site_fract_z
 _atom_site_occupancy
  Mo  Mo0  1  0.02023020  -0.00164758  -0.00160845  1
  Mo  Mo1  1  1.78563000  1.81958000  3.63441000  1
  Mo  Mo2  1  1.84475000  -0.01347430  1.80215000  1
  Mo  Mo3  1  -0.03711530  1.83357000  1.82879000  1
  Mo  Mo4  1  3.61464000  0.04071670  3.62878000  1
  Mo  Mo5  1  5.43109000  1.80088000  0.04325510  1
  Mo  Mo6  1  5.46376000  7.28604000  1.81034000  1
  Mo  Mo7  1  3.68048000  1.81863000  1.82798000  1
  Mo  Mo8  1  0.01170080  3.60819000  -0.00162434  1
  Mo  Mo9  1  1.83820000  5.41790000  -0.04035590  1
  Mo  Mo10  1  1.80373000  3.64839000  1.79318000  1
  Mo  Mo11  1  7.25271000  5.48082000  1.80122000  1
  Mo  Mo12  1  3.66426000  3.65057000  3.68161000  1
  Mo  Mo13  1  5.50519000  5.43181000  0.00874101  1
  Mo  Mo14  1  5.40824000  3.63333000  1.83700000  1
  Mo  Mo15  1  3.65861000  5.49080000  1.81919000  1
