# generated using pymatgen
data_Mo
_symmetry_space_group_name_H-M   'P 1'
_cell_length_a   7.27808089
_cell_length_b   7.27808089
_cell_length_c   3.63904047
_cell_angle_alpha   90.00000000
_cell_angle_beta   90.00000000
_cell_angle_gamma   90.00000000
_symmetry_Int_Tables_number   1
_chemical_formula_structural   Mo
_chemical_formula_sum   Mo16
_cell_volume   192.76165285
_cell_formula_units_Z   16
loop_
 _symmetry_equiv_pos_site_id
 _symmetry_equiv_pos_as_xyz
  1  'x, y, z'
loop_
 _atom_site_type_symbol
 _atom_site_label
 _atom_site_symmetry_multiplicity
 _atom_site_fract_x
 _atom_site_fract_y
 _atom_site_fract_z
 _atom_site_occupancy
  Mo  Mo0  1  0.01755380  7.28808000  -0.00763521  1
  Mo  Mo1  1  1.81683000  1.81751000  0.00068249  1
  Mo  Mo2  1  1.82062000  7.27710000  1.81336000  1
  Mo  Mo3  1  7.26843000  1.81970000  1.81591000  1
  Mo  Mo4  1  3.64827000  7.28303000  3.65326000  1
  Mo  Mo5  1  5.45574000  1.80855000  -0.01012210  1
  Mo  Mo6  1  5.45378000  -0.00716605  1.81122000  1
  Mo  Mo7  1  3.64509000  1.82925000  1.82127000  1
  Mo  Mo8  1  7.26712000  3.63400000  3.63308000  1
  Mo  Mo9  1  1.81647000  5.45846000  3.64512000  1
  Mo  Mo10  1  1.82659000  3.64474000  1.82571000  1
  Mo  Mo11  1  7.27331000  5.47102000  1.81507000  1
  Mo  Mo12  1  3.63322000  3.62967000  -0.00436283  1
  Mo  Mo13  1  5.46045000  5.44804000  3.64738000  1
  Mo  Mo14  1  5.47068000  3.63023000  1.83187000  1
  Mo  Mo15  1  3.62792000  5.46986000  1.82020000  1
