# generated using pymatgen
data_Mo
_symmetry_space_group_name_H-M   'P 1'
_cell_length_a   7.27788804
_cell_length_b   7.27788804
_cell_length_c   3.63894391
_cell_angle_alpha   90.00000000
_cell_angle_beta   90.00000000
_cell_angle_gamma   90.00000000
_symmetry_Int_Tables_number   1
_chemical_formula_structural   Mo
_chemical_formula_sum   Mo16
_cell_volume   192.74632321
_cell_formula_units_Z   16
loop_
 _symmetry_equiv_pos_site_id
 _symmetry_equiv_pos_as_xyz
  1  'x, y, z'
loop_
 _atom_site_type_symbol
 _atom_site_label
 _atom_site_symmetry_multiplicity
 _atom_site_fract_x
 _atom_site_fract_y
 _atom_site_fract_z
 _atom_site_occupancy
  Mo  Mo0  1  0.00506274  -0.00610399  0.01793830  1
  Mo  Mo1  1  1.84239000  1.85422000  3.63218000  1
  Mo  Mo2  1  1.80702000  -0.00615354  1.79739000  1
  Mo  Mo3  1  -0.00959236  1.76194000  1.84168000  1
  Mo  Mo4  1  3.63995000  -0.02326910  3.60943000  1
  Mo  Mo5  1  5.47702000  1.86921000  0.00653213  1
  Mo  Mo6  1  5.45691000  7.29478000  1.84994000  1
  Mo  Mo7  1  3.65750000  1.80628000  1.84543000  1
  Mo  Mo8  1  0.02206750  3.66783000  0.00035038  1
  Mo  Mo9  1  1.81291000  5.46535000  -0.02650450  1
  Mo  Mo10  1  1.77030000  3.63171000  1.81018000  1
  Mo  Mo11  1  7.26461000  5.47767000  1.80474000  1
  Mo  Mo12  1  3.63877000  3.63040000  3.64388000  1
  Mo  Mo13  1  5.45917000  5.45233000  -0.00788608  1
  Mo  Mo14  1  5.45405000  3.62357000  1.82235000  1
  Mo  Mo15  1  3.64796000  5.44635000  1.82541000  1
