# generated using pymatgen
data_Mo
_symmetry_space_group_name_H-M   'P 1'
_cell_length_a   7.27788804
_cell_length_b   7.27788804
_cell_length_c   3.63894391
_cell_angle_alpha   90.00000000
_cell_angle_beta   90.00000000
_cell_angle_gamma   90.00000000
_symmetry_Int_Tables_number   1
_chemical_formula_structural   Mo
_chemical_formula_sum   Mo16
_cell_volume   192.74632321
_cell_formula_units_Z   16
loop_
 _symmetry_equiv_pos_site_id
 _symmetry_equiv_pos_as_xyz
  1  'x, y, z'
loop_
 _atom_site_type_symbol
 _atom_site_label
 _atom_site_symmetry_multiplicity
 _atom_site_fract_x
 _atom_site_fract_y
 _atom_site_fract_z
 _atom_site_occupancy
  Mo  Mo0  1  0.05161310  0.01955090  0.04718460  1
  Mo  Mo1  1  1.83296000  1.84370000  3.65754000  1
  Mo  Mo2  1  1.80231000  -0.01604640  1.83331000  1
  Mo  Mo3  1  -0.03353230  1.78639000  1.80847000  1
  Mo  Mo4  1  3.61996000  -0.01805930  3.63333000  1
  Mo  Mo5  1  5.48339000  1.85171000  -0.01879190  1
  Mo  Mo6  1  5.44666000  7.28649000  1.80562000  1
  Mo  Mo7  1  3.63409000  1.81452000  1.82656000  1
  Mo  Mo8  1  -0.03291620  3.65939000  -0.02522610  1
  Mo  Mo9  1  1.80057000  5.44316000  0.03360440  1
  Mo  Mo10  1  1.85166000  3.67437000  1.80126000  1
  Mo  Mo11  1  7.30264000  5.41964000  1.80631000  1
  Mo  Mo12  1  3.62595000  3.61613000  3.65382000  1
  Mo  Mo13  1  5.45303000  5.47208000  -0.01036500  1
  Mo  Mo14  1  5.45724000  3.64782000  1.80458000  1
  Mo  Mo15  1  3.65048000  5.44526000  1.81586000  1
