# generated using pymatgen
data_Mo
_symmetry_space_group_name_H-M   'P 1'
_cell_length_a   7.27788804
_cell_length_b   7.27788804
_cell_length_c   3.63894391
_cell_angle_alpha   90.00000000
_cell_angle_beta   90.00000000
_cell_angle_gamma   90.00000000
_symmetry_Int_Tables_number   1
_chemical_formula_structural   Mo
_chemical_formula_sum   Mo16
_cell_volume   192.74632321
_cell_formula_units_Z   16
loop_
 _symmetry_equiv_pos_site_id
 _symmetry_equiv_pos_as_xyz
  1  'x, y, z'
loop_
 _atom_site_type_symbol
 _atom_site_label
 _atom_site_symmetry_multiplicity
 _atom_site_fract_x
 _atom_site_fract_y
 _atom_site_fract_z
 _atom_site_occupancy
  Mo  Mo0  1  0.02656920  0.00090932  0.02014150  1
  Mo  Mo1  1  1.82555000  1.78640000  3.62350000  1
  Mo  Mo2  1  1.80302000  0.01929180  1.83056000  1
  Mo  Mo3  1  -0.00022294  1.82203000  1.83573000  1
  Mo  Mo4  1  3.66358000  -0.03218840  3.61799000  1
  Mo  Mo5  1  5.43267000  1.82064000  0.01695730  1
  Mo  Mo6  1  5.46155000  7.29256000  1.83279000  1
  Mo  Mo7  1  3.64387000  1.84748000  1.81596000  1
  Mo  Mo8  1  -0.01203970  3.67387000  -0.00849694  1
  Mo  Mo9  1  1.80811000  5.45076000  -0.02604030  1
  Mo  Mo10  1  1.81769000  3.63166000  1.81695000  1
  Mo  Mo11  1  7.31890000  5.44005000  1.80076000  1
  Mo  Mo12  1  3.62649000  3.66163000  3.63657000  1
  Mo  Mo13  1  5.43349000  5.45518000  0.00415863  1
  Mo  Mo14  1  5.47332000  3.59304000  1.85781000  1
  Mo  Mo15  1  3.62356000  5.48280000  1.79770000  1
