# generated using pymatgen
data_Mo
_symmetry_space_group_name_H-M   'P 1'
_cell_length_a   7.27788804
_cell_length_b   7.27788804
_cell_length_c   3.63894391
_cell_angle_alpha   90.00000000
_cell_angle_beta   90.00000000
_cell_angle_gamma   90.00000000
_symmetry_Int_Tables_number   1
_chemical_formula_structural   Mo
_chemical_formula_sum   Mo16
_cell_volume   192.74632321
_cell_formula_units_Z   16
loop_
 _symmetry_equiv_pos_site_id
 _symmetry_equiv_pos_as_xyz
  1  'x, y, z'
loop_
 _atom_site_type_symbol
 _atom_site_label
 _atom_site_symmetry_multiplicity
 _atom_site_fract_x
 _atom_site_fract_y
 _atom_site_fract_z
 _atom_site_occupancy
  Mo  Mo0  1  -0.02111740  0.02799720  0.00944454  1
  Mo  Mo1  1  1.80325000  1.80652000  3.64862000  1
  Mo  Mo2  1  1.82289000  0.01247240  1.84135000  1
  Mo  Mo3  1  0.01175840  1.82128000  1.81302000  1
  Mo  Mo4  1  3.66459000  0.01259490  3.62810000  1
  Mo  Mo5  1  5.47300000  1.83033000  -0.04404940  1
  Mo  Mo6  1  5.41041000  7.28316000  1.79444000  1
  Mo  Mo7  1  3.62180000  1.82448000  1.82738000  1
  Mo  Mo8  1  0.00129390  3.61882000  -0.00766988  1
  Mo  Mo9  1  1.84222000  5.48572000  0.00284240  1
  Mo  Mo10  1  1.79358000  3.62664000  1.83916000  1
  Mo  Mo11  1  7.28314000  5.41759000  1.83551000  1
  Mo  Mo12  1  3.66313000  3.63824000  3.63365000  1
  Mo  Mo13  1  5.47351000  5.48713000  0.00203152  1
  Mo  Mo14  1  5.45882000  3.64424000  1.80114000  1
  Mo  Mo15  1  3.64384000  5.40891000  1.84809000  1
