# generated using pymatgen
data_Mo
_symmetry_space_group_name_H-M   'P 1'
_cell_length_a   7.27788804
_cell_length_b   7.27788804
_cell_length_c   3.63894391
_cell_angle_alpha   90.00000000
_cell_angle_beta   90.00000000
_cell_angle_gamma   90.00000000
_symmetry_Int_Tables_number   1
_chemical_formula_structural   Mo
_chemical_formula_sum   Mo16
_cell_volume   192.74632321
_cell_formula_units_Z   16
loop_
 _symmetry_equiv_pos_site_id
 _symmetry_equiv_pos_as_xyz
  1  'x, y, z'
loop_
 _atom_site_type_symbol
 _atom_site_label
 _atom_site_symmetry_multiplicity
 _atom_site_fract_x
 _atom_site_fract_y
 _atom_site_fract_z
 _atom_site_occupancy
  Mo  Mo0  1  0.00616852  0.00300282  0.00568029  1
  Mo  Mo1  1  1.83879000  1.83295000  3.63986000  1
  Mo  Mo2  1  1.82515000  0.01103730  1.80543000  1
  Mo  Mo3  1  0.00232983  1.80538000  1.81792000  1
  Mo  Mo4  1  3.65322000  0.03674900  3.65799000  1
  Mo  Mo5  1  5.46386000  1.83198000  0.03365580  1
  Mo  Mo6  1  5.42944000  7.25805000  1.79131000  1
  Mo  Mo7  1  3.65286000  1.81039000  1.82145000  1
  Mo  Mo8  1  -0.00199689  3.61351000  0.00585325  1
  Mo  Mo9  1  1.83750000  5.48100000  -0.04784930  1
  Mo  Mo10  1  1.81553000  3.65887000  1.78750000  1
  Mo  Mo11  1  7.26303000  5.45289000  1.82565000  1
  Mo  Mo12  1  3.61697000  3.63076000  3.63113000  1
  Mo  Mo13  1  5.47708000  5.46320000  0.04656570  1
  Mo  Mo14  1  5.44908000  3.63195000  1.84226000  1
  Mo  Mo15  1  3.61708000  5.42439000  1.80867000  1
