# generated using pymatgen
data_Mo
_symmetry_space_group_name_H-M   'P 1'
_cell_length_a   7.27788804
_cell_length_b   7.27788804
_cell_length_c   3.63894391
_cell_angle_alpha   90.00000000
_cell_angle_beta   90.00000000
_cell_angle_gamma   90.00000000
_symmetry_Int_Tables_number   1
_chemical_formula_structural   Mo
_chemical_formula_sum   Mo16
_cell_volume   192.74632321
_cell_formula_units_Z   16
loop_
 _symmetry_equiv_pos_site_id
 _symmetry_equiv_pos_as_xyz
  1  'x, y, z'
loop_
 _atom_site_type_symbol
 _atom_site_label
 _atom_site_symmetry_multiplicity
 _atom_site_fract_x
 _atom_site_fract_y
 _atom_site_fract_z
 _atom_site_occupancy
  Mo  Mo0  1  0.00838456  -0.01339320  -0.03709260  1
  Mo  Mo1  1  1.80776000  1.84732000  3.63710000  1
  Mo  Mo2  1  1.85004000  0.00608477  1.76262000  1
  Mo  Mo3  1  -0.00072004  1.81543000  1.82488000  1
  Mo  Mo4  1  3.61344000  0.01774340  3.65621000  1
  Mo  Mo5  1  5.46583000  1.83661000  0.04434940  1
  Mo  Mo6  1  5.46995000  7.28975000  1.82477000  1
  Mo  Mo7  1  3.65577000  1.79892000  1.83545000  1
  Mo  Mo8  1  0.03890580  3.60350000  0.03872430  1
  Mo  Mo9  1  1.85284000  5.44656000  -0.04033010  1
  Mo  Mo10  1  1.78337000  3.61803000  1.81458000  1
  Mo  Mo11  1  7.24155000  5.48556000  1.82278000  1
  Mo  Mo12  1  3.60414000  3.64528000  3.64596000  1
  Mo  Mo13  1  5.48263000  5.43744000  0.01364750  1
  Mo  Mo14  1  5.41590000  3.66035000  1.80754000  1
  Mo  Mo15  1  3.65632000  5.45093000  1.82187000  1
