# generated using pymatgen
data_Mo
_symmetry_space_group_name_H-M   'P 1'
_cell_length_a   7.27788804
_cell_length_b   7.27788804
_cell_length_c   3.63894391
_cell_angle_alpha   90.00000000
_cell_angle_beta   90.00000000
_cell_angle_gamma   90.00000000
_symmetry_Int_Tables_number   1
_chemical_formula_structural   Mo
_chemical_formula_sum   Mo16
_cell_volume   192.74632321
_cell_formula_units_Z   16
loop_
 _symmetry_equiv_pos_site_id
 _symmetry_equiv_pos_as_xyz
  1  'x, y, z'
loop_
 _atom_site_type_symbol
 _atom_site_label
 _atom_site_symmetry_multiplicity
 _atom_site_fract_x
 _atom_site_fract_y
 _atom_site_fract_z
 _atom_site_occupancy
  Mo  Mo0  1  0.01860350  -0.05077870  0.04656330  1
  Mo  Mo1  1  1.83769000  1.83697000  3.62795000  1
  Mo  Mo2  1  1.78131000  0.01461190  1.83240000  1
  Mo  Mo3  1  -0.01561210  1.80247000  1.84088000  1
  Mo  Mo4  1  3.62595000  -0.01391240  3.63199000  1
  Mo  Mo5  1  5.43626000  1.83230000  -0.00822432  1
  Mo  Mo6  1  5.45935000  7.29247000  1.78087000  1
  Mo  Mo7  1  3.62857000  1.80366000  1.79180000  1
  Mo  Mo8  1  0.00559463  3.67472000  -0.01606820  1
  Mo  Mo9  1  1.83469000  5.44786000  -0.00226743  1
  Mo  Mo10  1  1.84711000  3.63434000  1.80467000  1
  Mo  Mo11  1  7.28660000  5.46475000  1.85584000  1
  Mo  Mo12  1  3.63299000  3.66473000  3.64851000  1
  Mo  Mo13  1  5.46758000  5.47810000  0.00858865  1
  Mo  Mo14  1  5.47367000  3.59065000  1.80620000  1
  Mo  Mo15  1  3.62576000  5.47316000  1.82335000  1
