# generated using pymatgen
data_Mo
_symmetry_space_group_name_H-M   'P 1'
_cell_length_a   7.27788804
_cell_length_b   7.27788804
_cell_length_c   3.63894391
_cell_angle_alpha   90.00000000
_cell_angle_beta   90.00000000
_cell_angle_gamma   90.00000000
_symmetry_Int_Tables_number   1
_chemical_formula_structural   Mo
_chemical_formula_sum   Mo16
_cell_volume   192.74632321
_cell_formula_units_Z   16
loop_
 _symmetry_equiv_pos_site_id
 _symmetry_equiv_pos_as_xyz
  1  'x, y, z'
loop_
 _atom_site_type_symbol
 _atom_site_label
 _atom_site_symmetry_multiplicity
 _atom_site_fract_x
 _atom_site_fract_y
 _atom_site_fract_z
 _atom_site_occupancy
  Mo  Mo0  1  0.02083480  0.00149847  -0.02031980  1
  Mo  Mo1  1  1.80154000  1.81544000  3.63549000  1
  Mo  Mo2  1  1.80173000  0.00212839  1.79982000  1
  Mo  Mo3  1  -0.02575940  1.79091000  1.79964000  1
  Mo  Mo4  1  3.63583000  0.01505830  3.64668000  1
  Mo  Mo5  1  5.45705000  1.80558000  -0.01178920  1
  Mo  Mo6  1  5.45114000  7.26670000  1.85572000  1
  Mo  Mo7  1  3.65188000  1.82743000  1.80756000  1
  Mo  Mo8  1  0.00360097  3.63203000  0.00543762  1
  Mo  Mo9  1  1.80103000  5.46602000  0.01712260  1
  Mo  Mo10  1  1.85442000  3.63564000  1.83915000  1
  Mo  Mo11  1  7.27155000  5.48521000  1.82437000  1
  Mo  Mo12  1  3.63595000  3.64096000  3.62788000  1
  Mo  Mo13  1  5.42914000  5.44794000  0.01192290  1
  Mo  Mo14  1  5.48571000  3.61183000  1.83131000  1
  Mo  Mo15  1  3.67046000  5.50174000  1.80307000  1
