# generated using pymatgen
data_Mo
_symmetry_space_group_name_H-M   'P 1'
_cell_length_a   7.27788804
_cell_length_b   7.27788804
_cell_length_c   3.63894391
_cell_angle_alpha   90.00000000
_cell_angle_beta   90.00000000
_cell_angle_gamma   90.00000000
_symmetry_Int_Tables_number   1
_chemical_formula_structural   Mo
_chemical_formula_sum   Mo16
_cell_volume   192.74632321
_cell_formula_units_Z   16
loop_
 _symmetry_equiv_pos_site_id
 _symmetry_equiv_pos_as_xyz
  1  'x, y, z'
loop_
 _atom_site_type_symbol
 _atom_site_label
 _atom_site_symmetry_multiplicity
 _atom_site_fract_x
 _atom_site_fract_y
 _atom_site_fract_z
 _atom_site_occupancy
  Mo  Mo0  1  0.03363570  -0.01699870  -0.03801220  1
  Mo  Mo1  1  1.83115000  1.83464000  3.63949000  1
  Mo  Mo2  1  1.79961000  0.03013320  1.78040000  1
  Mo  Mo3  1  0.00524132  1.82924000  1.85930000  1
  Mo  Mo4  1  3.66131000  -0.00196257  3.63942000  1
  Mo  Mo5  1  5.46178000  1.83640000  -0.01270680  1
  Mo  Mo6  1  5.46924000  7.30657000  1.79723000  1
  Mo  Mo7  1  3.65015000  1.76990000  1.84231000  1
  Mo  Mo8  1  -0.01419250  3.63662000  -0.03427110  1
  Mo  Mo9  1  1.80896000  5.42490000  0.01062420  1
  Mo  Mo10  1  1.79943000  3.61918000  1.80800000  1
  Mo  Mo11  1  7.25806000  5.46995000  1.83052000  1
  Mo  Mo12  1  3.63870000  3.65847000  3.69687000  1
  Mo  Mo13  1  5.45052000  5.46293000  0.00312536  1
  Mo  Mo14  1  5.42284000  3.65325000  1.82479000  1
  Mo  Mo15  1  3.66968000  5.43288000  1.82597000  1
