# generated using pymatgen
data_Mo
_symmetry_space_group_name_H-M   'P 1'
_cell_length_a   7.27788804
_cell_length_b   7.27788804
_cell_length_c   3.63894391
_cell_angle_alpha   90.00000000
_cell_angle_beta   90.00000000
_cell_angle_gamma   90.00000000
_symmetry_Int_Tables_number   1
_chemical_formula_structural   Mo
_chemical_formula_sum   Mo16
_cell_volume   192.74632321
_cell_formula_units_Z   16
loop_
 _symmetry_equiv_pos_site_id
 _symmetry_equiv_pos_as_xyz
  1  'x, y, z'
loop_
 _atom_site_type_symbol
 _atom_site_label
 _atom_site_symmetry_multiplicity
 _atom_site_fract_x
 _atom_site_fract_y
 _atom_site_fract_z
 _atom_site_occupancy
  Mo  Mo0  1  -0.00485057  0.01370410  0.03083790  1
  Mo  Mo1  1  1.81444000  1.80120000  3.65636000  1
  Mo  Mo2  1  1.82239000  0.01036490  1.83619000  1
  Mo  Mo3  1  -0.02609890  1.80876000  1.84496000  1
  Mo  Mo4  1  3.63435000  0.00654689  3.63149000  1
  Mo  Mo5  1  5.47358000  1.82276000  -0.00539069  1
  Mo  Mo6  1  5.45157000  7.26117000  1.80845000  1
  Mo  Mo7  1  3.64441000  1.80230000  1.80520000  1
  Mo  Mo8  1  0.02124100  3.61692000  -0.02771130  1
  Mo  Mo9  1  1.81830000  5.44258000  0.02458220  1
  Mo  Mo10  1  1.83441000  3.63861000  1.78667000  1
  Mo  Mo11  1  7.24688000  5.49931000  1.82604000  1
  Mo  Mo12  1  3.60139000  3.65363000  3.65529000  1
  Mo  Mo13  1  5.46569000  5.43406000  -0.00613395  1
  Mo  Mo14  1  5.47967000  3.66034000  1.82035000  1
  Mo  Mo15  1  3.66874000  5.47384000  1.78588000  1
