# generated using pymatgen
data_Mo
_symmetry_space_group_name_H-M   'P 1'
_cell_length_a   7.27788804
_cell_length_b   7.27788804
_cell_length_c   3.63894391
_cell_angle_alpha   90.00000000
_cell_angle_beta   90.00000000
_cell_angle_gamma   90.00000000
_symmetry_Int_Tables_number   1
_chemical_formula_structural   Mo
_chemical_formula_sum   Mo16
_cell_volume   192.74632321
_cell_formula_units_Z   16
loop_
 _symmetry_equiv_pos_site_id
 _symmetry_equiv_pos_as_xyz
  1  'x, y, z'
loop_
 _atom_site_type_symbol
 _atom_site_label
 _atom_site_symmetry_multiplicity
 _atom_site_fract_x
 _atom_site_fract_y
 _atom_site_fract_z
 _atom_site_occupancy
  Mo  Mo0  1  -0.00651112  -0.00206338  -0.01866260  1
  Mo  Mo1  1  1.83000000  1.82521000  3.65314000  1
  Mo  Mo2  1  1.83902000  -0.00177393  1.79665000  1
  Mo  Mo3  1  0.01390350  1.85997000  1.82564000  1
  Mo  Mo4  1  3.61973000  -0.02008440  3.63397000  1
  Mo  Mo5  1  5.48352000  1.79998000  0.01436630  1
  Mo  Mo6  1  5.46852000  7.26383000  1.87243000  1
  Mo  Mo7  1  3.62917000  1.82558000  1.83815000  1
  Mo  Mo8  1  -0.01688020  3.61941000  -0.02298410  1
  Mo  Mo9  1  1.83049000  5.46784000  -0.00227698  1
  Mo  Mo10  1  1.81993000  3.64518000  1.82321000  1
  Mo  Mo11  1  7.26383000  5.44971000  1.78337000  1
  Mo  Mo12  1  3.63648000  3.63831000  3.65149000  1
  Mo  Mo13  1  5.44258000  5.45602000  0.00058020  1
  Mo  Mo14  1  5.44862000  3.65606000  1.81956000  1
  Mo  Mo15  1  3.64373000  5.46292000  1.80443000  1
