# generated using pymatgen
data_Mo
_symmetry_space_group_name_H-M   'P 1'
_cell_length_a   7.27788804
_cell_length_b   7.27788804
_cell_length_c   3.63894391
_cell_angle_alpha   90.00000000
_cell_angle_beta   90.00000000
_cell_angle_gamma   90.00000000
_symmetry_Int_Tables_number   1
_chemical_formula_structural   Mo
_chemical_formula_sum   Mo16
_cell_volume   192.74632321
_cell_formula_units_Z   16
loop_
 _symmetry_equiv_pos_site_id
 _symmetry_equiv_pos_as_xyz
  1  'x, y, z'
loop_
 _atom_site_type_symbol
 _atom_site_label
 _atom_site_symmetry_multiplicity
 _atom_site_fract_x
 _atom_site_fract_y
 _atom_site_fract_z
 _atom_site_occupancy
  Mo  Mo0  1  0.00704114  -0.00815998  -0.02702520  1
  Mo  Mo1  1  1.82808000  1.83320000  3.64132000  1
  Mo  Mo2  1  1.80122000  0.00570960  1.82771000  1
  Mo  Mo3  1  -0.03710950  1.78790000  1.83629000  1
  Mo  Mo4  1  3.66172000  -0.00816274  3.66168000  1
  Mo  Mo5  1  5.44003000  1.83737000  -0.00070491  1
  Mo  Mo6  1  5.46820000  7.30608000  1.82817000  1
  Mo  Mo7  1  3.62259000  1.83074000  1.82653000  1
  Mo  Mo8  1  -0.06829850  3.63486000  -0.00512026  1
  Mo  Mo9  1  1.82040000  5.48467000  -0.00774449  1
  Mo  Mo10  1  1.83910000  3.62882000  1.81549000  1
  Mo  Mo11  1  7.32437000  5.42083000  1.78288000  1
  Mo  Mo12  1  3.65805000  3.63539000  3.61214000  1
  Mo  Mo13  1  5.44675000  5.49421000  -0.00411795  1
  Mo  Mo14  1  5.47370000  3.60992000  1.85104000  1
  Mo  Mo15  1  3.66028000  5.45272000  1.83451000  1
