# generated using pymatgen
data_Mo
_symmetry_space_group_name_H-M   'P 1'
_cell_length_a   7.27788804
_cell_length_b   7.27788804
_cell_length_c   3.63894391
_cell_angle_alpha   90.00000000
_cell_angle_beta   90.00000000
_cell_angle_gamma   90.00000000
_symmetry_Int_Tables_number   1
_chemical_formula_structural   Mo
_chemical_formula_sum   Mo16
_cell_volume   192.74632321
_cell_formula_units_Z   16
loop_
 _symmetry_equiv_pos_site_id
 _symmetry_equiv_pos_as_xyz
  1  'x, y, z'
loop_
 _atom_site_type_symbol
 _atom_site_label
 _atom_site_symmetry_multiplicity
 _atom_site_fract_x
 _atom_site_fract_y
 _atom_site_fract_z
 _atom_site_occupancy
  Mo  Mo0  1  -0.01368380  0.00407836  0.00851367  1
  Mo  Mo1  1  1.80591000  1.80886000  3.61732000  1
  Mo  Mo2  1  1.86253000  0.02021870  1.79777000  1
  Mo  Mo3  1  0.00560346  1.81900000  1.82459000  1
  Mo  Mo4  1  3.64854000  -0.00407375  3.59305000  1
  Mo  Mo5  1  5.44657000  1.78555000  -0.02392260  1
  Mo  Mo6  1  5.45443000  7.27235000  1.87546000  1
  Mo  Mo7  1  3.62061000  1.86280000  1.80839000  1
  Mo  Mo8  1  0.01238350  3.63596000  0.00323524  1
  Mo  Mo9  1  1.80819000  5.47318000  -0.00607568  1
  Mo  Mo10  1  1.80964000  3.62944000  1.81270000  1
  Mo  Mo11  1  7.30396000  5.43935000  1.82514000  1
  Mo  Mo12  1  3.64230000  3.64684000  3.65109000  1
  Mo  Mo13  1  5.42692000  5.43254000  0.01359130  1
  Mo  Mo14  1  5.45985000  3.63633000  1.84622000  1
  Mo  Mo15  1  3.65238000  5.48369000  1.82597000  1
