# generated using pymatgen
data_Mo
_symmetry_space_group_name_H-M   'P 1'
_cell_length_a   7.27788804
_cell_length_b   7.27788804
_cell_length_c   3.63894391
_cell_angle_alpha   90.00000000
_cell_angle_beta   90.00000000
_cell_angle_gamma   90.00000000
_symmetry_Int_Tables_number   1
_chemical_formula_structural   Mo
_chemical_formula_sum   Mo16
_cell_volume   192.74632321
_cell_formula_units_Z   16
loop_
 _symmetry_equiv_pos_site_id
 _symmetry_equiv_pos_as_xyz
  1  'x, y, z'
loop_
 _atom_site_type_symbol
 _atom_site_label
 _atom_site_symmetry_multiplicity
 _atom_site_fract_x
 _atom_site_fract_y
 _atom_site_fract_z
 _atom_site_occupancy
  Mo  Mo0  1  0.01322550  -0.02341470  0.02188310  1
  Mo  Mo1  1  1.82229000  1.83820000  3.61185000  1
  Mo  Mo2  1  1.81858000  0.02047710  1.78453000  1
  Mo  Mo3  1  -0.00990796  1.79682000  1.81891000  1
  Mo  Mo4  1  3.63751000  0.00400221  3.63371000  1
  Mo  Mo5  1  5.45256000  1.86052000  0.02227910  1
  Mo  Mo6  1  5.43127000  7.26380000  1.79878000  1
  Mo  Mo7  1  3.62879000  1.78876000  1.77769000  1
  Mo  Mo8  1  0.00589906  3.60942000  -0.01128740  1
  Mo  Mo9  1  1.87980000  5.45959000  0.02250990  1
  Mo  Mo10  1  1.80955000  3.62962000  1.85565000  1
  Mo  Mo11  1  7.26561000  5.46780000  1.84532000  1
  Mo  Mo12  1  3.60400000  3.67203000  3.64916000  1
  Mo  Mo13  1  5.47521000  5.45410000  0.01939180  1
  Mo  Mo14  1  5.47168000  3.63515000  1.78746000  1
  Mo  Mo15  1  3.64006000  5.46924000  1.83522000  1
