# generated using pymatgen
data_Mo
_symmetry_space_group_name_H-M   'P 1'
_cell_length_a   7.27788804
_cell_length_b   7.27788804
_cell_length_c   3.63894391
_cell_angle_alpha   90.00000000
_cell_angle_beta   90.00000000
_cell_angle_gamma   90.00000000
_symmetry_Int_Tables_number   1
_chemical_formula_structural   Mo
_chemical_formula_sum   Mo16
_cell_volume   192.74632321
_cell_formula_units_Z   16
loop_
 _symmetry_equiv_pos_site_id
 _symmetry_equiv_pos_as_xyz
  1  'x, y, z'
loop_
 _atom_site_type_symbol
 _atom_site_label
 _atom_site_symmetry_multiplicity
 _atom_site_fract_x
 _atom_site_fract_y
 _atom_site_fract_z
 _atom_site_occupancy
  Mo  Mo0  1  -0.01059820  -0.02985170  0.00206165  1
  Mo  Mo1  1  1.81551000  1.84419000  3.63100000  1
  Mo  Mo2  1  1.82406000  -0.01537130  1.82824000  1
  Mo  Mo3  1  -0.00337309  1.83177000  1.82284000  1
  Mo  Mo4  1  3.59789000  0.02957540  3.62502000  1
  Mo  Mo5  1  5.44892000  1.83745000  0.00299169  1
  Mo  Mo6  1  5.44742000  7.28280000  1.79350000  1
  Mo  Mo7  1  3.66218000  1.82814000  1.80703000  1
  Mo  Mo8  1  0.03807960  3.59158000  -0.01544950  1
  Mo  Mo9  1  1.84356000  5.47914000  -0.00197158  1
  Mo  Mo10  1  1.80374000  3.65339000  1.78980000  1
  Mo  Mo11  1  7.28256000  5.47388000  1.84094000  1
  Mo  Mo12  1  3.65210000  3.64592000  3.66522000  1
  Mo  Mo13  1  5.47950000  5.41277000  0.00725768  1
  Mo  Mo14  1  5.44105000  3.63561000  1.82314000  1
  Mo  Mo15  1  3.62352000  5.44511000  1.85144000  1
