# generated using pymatgen
data_Mo
_symmetry_space_group_name_H-M   'P 1'
_cell_length_a   7.27788804
_cell_length_b   7.27788804
_cell_length_c   3.63894391
_cell_angle_alpha   90.00000000
_cell_angle_beta   90.00000000
_cell_angle_gamma   90.00000000
_symmetry_Int_Tables_number   1
_chemical_formula_structural   Mo
_chemical_formula_sum   Mo16
_cell_volume   192.74632321
_cell_formula_units_Z   16
loop_
 _symmetry_equiv_pos_site_id
 _symmetry_equiv_pos_as_xyz
  1  'x, y, z'
loop_
 _atom_site_type_symbol
 _atom_site_label
 _atom_site_symmetry_multiplicity
 _atom_site_fract_x
 _atom_site_fract_y
 _atom_site_fract_z
 _atom_site_occupancy
  Mo  Mo0  1  -0.02396000  0.00684824  -0.01135660  1
  Mo  Mo1  1  1.82568000  1.82243000  3.62434000  1
  Mo  Mo2  1  1.82420000  -0.02647870  1.80755000  1
  Mo  Mo3  1  -0.02634810  1.79150000  1.78322000  1
  Mo  Mo4  1  3.64899000  -0.00353452  3.65575000  1
  Mo  Mo5  1  5.45331000  1.84915000  -0.00418517  1
  Mo  Mo6  1  5.44380000  7.24655000  1.83132000  1
  Mo  Mo7  1  3.65429000  1.84213000  1.82654000  1
  Mo  Mo8  1  0.00412398  3.63907000  0.02472870  1
  Mo  Mo9  1  1.80581000  5.49262000  -0.00243975  1
  Mo  Mo10  1  1.82867000  3.66789000  1.85711000  1
  Mo  Mo11  1  7.28388000  5.44186000  1.81248000  1
  Mo  Mo12  1  3.64669000  3.61673000  3.62008000  1
  Mo  Mo13  1  5.47339000  5.45274000  0.01191430  1
  Mo  Mo14  1  5.46950000  3.63588000  1.80044000  1
  Mo  Mo15  1  3.63408000  5.47072000  1.83556000  1
