# generated using pymatgen
data_Mo
_symmetry_space_group_name_H-M   'P 1'
_cell_length_a   7.27788804
_cell_length_b   7.27788804
_cell_length_c   3.63894391
_cell_angle_alpha   90.00000000
_cell_angle_beta   90.00000000
_cell_angle_gamma   90.00000000
_symmetry_Int_Tables_number   1
_chemical_formula_structural   Mo
_chemical_formula_sum   Mo16
_cell_volume   192.74632321
_cell_formula_units_Z   16
loop_
 _symmetry_equiv_pos_site_id
 _symmetry_equiv_pos_as_xyz
  1  'x, y, z'
loop_
 _atom_site_type_symbol
 _atom_site_label
 _atom_site_symmetry_multiplicity
 _atom_site_fract_x
 _atom_site_fract_y
 _atom_site_fract_z
 _atom_site_occupancy
  Mo  Mo0  1  -0.02383110  -0.02046090  -0.05173890  1
  Mo  Mo1  1  1.84186000  1.83693000  3.64748000  1
  Mo  Mo2  1  1.83047000  -0.01943750  1.77967000  1
  Mo  Mo3  1  0.01513100  1.86293000  1.82093000  1
  Mo  Mo4  1  3.64312000  -0.00325639  3.66740000  1
  Mo  Mo5  1  5.46690000  1.82602000  -0.02189570  1
  Mo  Mo6  1  5.47057000  7.26111000  1.81902000  1
  Mo  Mo7  1  3.62048000  1.80398000  1.83342000  1
  Mo  Mo8  1  -0.00864527  3.60894000  0.01188630  1
  Mo  Mo9  1  1.83085000  5.47906000  0.02334290  1
  Mo  Mo10  1  1.81931000  3.62963000  1.83099000  1
  Mo  Mo11  1  7.26560000  5.46136000  1.84142000  1
  Mo  Mo12  1  3.64573000  3.63625000  3.64615000  1
  Mo  Mo13  1  5.47168000  5.47973000  -0.00084127  1
  Mo  Mo14  1  5.42854000  3.68363000  1.78898000  1
  Mo  Mo15  1  3.62834000  5.41968000  1.83684000  1
