# generated using pymatgen
data_Mo
_symmetry_space_group_name_H-M   'P 1'
_cell_length_a   7.27788804
_cell_length_b   7.27788804
_cell_length_c   3.63894391
_cell_angle_alpha   90.00000000
_cell_angle_beta   90.00000000
_cell_angle_gamma   90.00000000
_symmetry_Int_Tables_number   1
_chemical_formula_structural   Mo
_chemical_formula_sum   Mo16
_cell_volume   192.74632321
_cell_formula_units_Z   16
loop_
 _symmetry_equiv_pos_site_id
 _symmetry_equiv_pos_as_xyz
  1  'x, y, z'
loop_
 _atom_site_type_symbol
 _atom_site_label
 _atom_site_symmetry_multiplicity
 _atom_site_fract_x
 _atom_site_fract_y
 _atom_site_fract_z
 _atom_site_occupancy
  Mo  Mo0  1  0.01156190  0.02398160  0.01122580  1
  Mo  Mo1  1  1.82728000  1.79315000  3.65298000  1
  Mo  Mo2  1  1.80379000  -0.01164600  1.87478000  1
  Mo  Mo3  1  -0.00384113  1.82545000  1.82730000  1
  Mo  Mo4  1  3.66074000  -0.00102513  3.63997000  1
  Mo  Mo5  1  5.45239000  1.81690000  -0.04445770  1
  Mo  Mo6  1  5.44382000  7.27843000  1.82073000  1
  Mo  Mo7  1  3.64197000  1.82881000  1.79837000  1
  Mo  Mo8  1  -0.02029680  3.65592000  -0.02366010  1
  Mo  Mo9  1  1.78802000  5.46983000  0.03741380  1
  Mo  Mo10  1  1.84261000  3.63405000  1.82347000  1
  Mo  Mo11  1  7.29866000  5.47769000  1.81332000  1
  Mo  Mo12  1  3.64887000  3.60260000  3.61298000  1
  Mo  Mo13  1  5.41965000  5.47069000  -0.01960090  1
  Mo  Mo14  1  5.49808000  3.61007000  1.82817000  1
  Mo  Mo15  1  3.63281000  5.47121000  1.82007000  1
