# generated using pymatgen
data_Mo
_symmetry_space_group_name_H-M   'P 1'
_cell_length_a   7.27808089
_cell_length_b   7.27808089
_cell_length_c   3.63904047
_cell_angle_alpha   90.00000000
_cell_angle_beta   90.00000000
_cell_angle_gamma   90.00000000
_symmetry_Int_Tables_number   1
_chemical_formula_structural   Mo
_chemical_formula_sum   Mo16
_cell_volume   192.76165285
_cell_formula_units_Z   16
loop_
 _symmetry_equiv_pos_site_id
 _symmetry_equiv_pos_as_xyz
  1  'x, y, z'
loop_
 _atom_site_type_symbol
 _atom_site_label
 _atom_site_symmetry_multiplicity
 _atom_site_fract_x
 _atom_site_fract_y
 _atom_site_fract_z
 _atom_site_occupancy
  Mo  Mo0  1  0.01027450  7.28190000  0.00341117  1
  Mo  Mo1  1  1.82400000  1.83061000  -0.00703308  1
  Mo  Mo2  1  1.80296000  7.28554000  1.81298000  1
  Mo  Mo3  1  7.28363000  1.81475000  1.82329000  1
  Mo  Mo4  1  3.64767000  7.26957000  3.64521000  1
  Mo  Mo5  1  5.45453000  1.81638000  -0.00776537  1
  Mo  Mo6  1  5.45647000  -0.00793477  1.80500000  1
  Mo  Mo7  1  3.64498000  1.82011000  1.82326000  1
  Mo  Mo8  1  7.27134000  3.64676000  3.62116000  1
  Mo  Mo9  1  1.82746000  5.46057000  3.65070000  1
  Mo  Mo10  1  1.81562000  3.64094000  1.82228000  1
  Mo  Mo11  1  7.27386000  5.45047000  1.81597000  1
  Mo  Mo12  1  3.62787000  3.64845000  0.00226772  1
  Mo  Mo13  1  5.45506000  5.45621000  3.64418000  1
  Mo  Mo14  1  5.46367000  3.63260000  1.83198000  1
  Mo  Mo15  1  3.64269000  5.45515000  1.82511000  1
