# generated using pymatgen
data_Mo
_symmetry_space_group_name_H-M   'P 1'
_cell_length_a   7.27808089
_cell_length_b   7.27808089
_cell_length_c   3.63904047
_cell_angle_alpha   90.00000000
_cell_angle_beta   90.00000000
_cell_angle_gamma   90.00000000
_symmetry_Int_Tables_number   1
_chemical_formula_structural   Mo
_chemical_formula_sum   Mo16
_cell_volume   192.76165285
_cell_formula_units_Z   16
loop_
 _symmetry_equiv_pos_site_id
 _symmetry_equiv_pos_as_xyz
  1  'x, y, z'
loop_
 _atom_site_type_symbol
 _atom_site_label
 _atom_site_symmetry_multiplicity
 _atom_site_fract_x
 _atom_site_fract_y
 _atom_site_fract_z
 _atom_site_occupancy
  Mo  Mo0  1  -0.00432277  7.27610000  -0.01527760  1
  Mo  Mo1  1  1.82325000  1.82383000  -0.00512314  1
  Mo  Mo2  1  1.82201000  7.28631000  1.81882000  1
  Mo  Mo3  1  7.27094000  1.80969000  1.79735000  1
  Mo  Mo4  1  3.62746000  7.27691000  3.63840000  1
  Mo  Mo5  1  5.45546000  1.82054000  -0.00187995  1
  Mo  Mo6  1  5.46723000  0.01107080  1.82838000  1
  Mo  Mo7  1  3.64380000  1.80988000  1.82179000  1
  Mo  Mo8  1  7.27827000  3.63453000  3.64770000  1
  Mo  Mo9  1  1.82812000  5.46910000  3.63959000  1
  Mo  Mo10  1  1.80012000  3.63789000  1.81971000  1
  Mo  Mo11  1  7.29236000  5.45489000  1.82820000  1
  Mo  Mo12  1  3.64383000  3.64727000  0.01152190  1
  Mo  Mo13  1  5.45675000  5.46511000  3.64167000  1
  Mo  Mo14  1  5.45168000  3.63185000  1.80569000  1
  Mo  Mo15  1  3.64512000  5.44712000  1.83543000  1
