# generated using pymatgen
data_Mo
_symmetry_space_group_name_H-M   'P 1'
_cell_length_a   7.27788804
_cell_length_b   7.27788804
_cell_length_c   3.63894391
_cell_angle_alpha   90.00000000
_cell_angle_beta   90.00000000
_cell_angle_gamma   90.00000000
_symmetry_Int_Tables_number   1
_chemical_formula_structural   Mo
_chemical_formula_sum   Mo16
_cell_volume   192.74632321
_cell_formula_units_Z   16
loop_
 _symmetry_equiv_pos_site_id
 _symmetry_equiv_pos_as_xyz
  1  'x, y, z'
loop_
 _atom_site_type_symbol
 _atom_site_label
 _atom_site_symmetry_multiplicity
 _atom_site_fract_x
 _atom_site_fract_y
 _atom_site_fract_z
 _atom_site_occupancy
  Mo  Mo0  1  0.03053080  -0.00739021  -0.00096434  1
  Mo  Mo1  1  1.78602000  1.82392000  3.64389000  1
  Mo  Mo2  1  1.83617000  0.00279668  1.80151000  1
  Mo  Mo3  1  -0.02868870  1.80421000  1.81702000  1
  Mo  Mo4  1  3.64515000  0.02098800  3.62146000  1
  Mo  Mo5  1  5.45560000  1.79873000  0.03459820  1
  Mo  Mo6  1  5.46399000  7.26742000  1.82246000  1
  Mo  Mo7  1  3.63844000  1.80231000  1.81467000  1
  Mo  Mo8  1  0.00713081  3.63848000  -0.01702660  1
  Mo  Mo9  1  1.80896000  5.43404000  -0.01398060  1
  Mo  Mo10  1  1.83461000  3.61848000  1.79757000  1
  Mo  Mo11  1  7.25307000  5.48260000  1.78737000  1
  Mo  Mo12  1  3.59936000  3.65333000  3.67955000  1
  Mo  Mo13  1  5.45624000  5.45400000  0.01017950  1
  Mo  Mo14  1  5.46521000  3.64274000  1.87771000  1
  Mo  Mo15  1  3.69433000  5.50945000  1.79705000  1
