# generated using pymatgen
data_Mo
_symmetry_space_group_name_H-M   'P 1'
_cell_length_a   7.27880859
_cell_length_b   7.27880859
_cell_length_c   3.63940430
_cell_angle_alpha   90.00000000
_cell_angle_beta   90.00000000
_cell_angle_gamma   90.00000000
_symmetry_Int_Tables_number   1
_chemical_formula_structural   Mo
_chemical_formula_sum   Mo16
_cell_volume   192.81947745
_cell_formula_units_Z   16
loop_
 _symmetry_equiv_pos_site_id
 _symmetry_equiv_pos_as_xyz
  1  'x, y, z'
loop_
 _atom_site_type_symbol
 _atom_site_label
 _atom_site_symmetry_multiplicity
 _atom_site_fract_x
 _atom_site_fract_y
 _atom_site_fract_z
 _atom_site_occupancy
  Mo  Mo0  1  -0.00754346  -0.02463040  3.66752000  1
  Mo  Mo1  1  1.83862000  1.77133000  3.71700000  1
  Mo  Mo2  1  1.81427000  7.30131000  1.77116000  1
  Mo  Mo3  1  0.04880090  1.84256000  1.85031000  1
  Mo  Mo4  1  3.62410000  -0.06175280  0.00451162  1
  Mo  Mo5  1  5.45959000  1.82126000  3.65453000  1
  Mo  Mo6  1  5.47085000  0.05324650  1.81957000  1
  Mo  Mo7  1  3.61794000  1.83552000  1.87518000  1
  Mo  Mo8  1  0.01853010  3.65765000  0.02467430  1
  Mo  Mo9  1  1.79726000  5.48338000  -0.08645360  1
  Mo  Mo10  1  1.81354000  3.64829000  1.83098000  1
  Mo  Mo11  1  7.27359000  5.47051000  1.81885000  1
  Mo  Mo12  1  3.61842000  3.68357000  -0.04290560  1
  Mo  Mo13  1  5.44402000  5.44983000  0.01415300  1
  Mo  Mo14  1  5.43073000  3.56363000  1.79421000  1
  Mo  Mo15  1  3.68248000  5.44948000  1.75929000  1
