# generated using pymatgen
data_Mo
_symmetry_space_group_name_H-M   'P 1'
_cell_length_a   7.27880859
_cell_length_b   7.27880859
_cell_length_c   3.63940430
_cell_angle_alpha   90.00000000
_cell_angle_beta   90.00000000
_cell_angle_gamma   90.00000000
_symmetry_Int_Tables_number   1
_chemical_formula_structural   Mo
_chemical_formula_sum   Mo16
_cell_volume   192.81947745
_cell_formula_units_Z   16
loop_
 _symmetry_equiv_pos_site_id
 _symmetry_equiv_pos_as_xyz
  1  'x, y, z'
loop_
 _atom_site_type_symbol
 _atom_site_label
 _atom_site_symmetry_multiplicity
 _atom_site_fract_x
 _atom_site_fract_y
 _atom_site_fract_z
 _atom_site_occupancy
  Mo  Mo0  1  -0.02267110  -0.00770279  3.66753000  1
  Mo  Mo1  1  1.80865000  1.82383000  3.64953000  1
  Mo  Mo2  1  1.83091000  7.28863000  1.80728000  1
  Mo  Mo3  1  0.01426970  1.81555000  1.77201000  1
  Mo  Mo4  1  3.68711000  0.01759690  0.03318130  1
  Mo  Mo5  1  5.47396000  1.85275000  3.68332000  1
  Mo  Mo6  1  5.45384000  -0.01841510  1.86366000  1
  Mo  Mo7  1  3.66830000  1.78734000  1.87598000  1
  Mo  Mo8  1  0.01644040  3.61810000  -0.04927480  1
  Mo  Mo9  1  1.81352000  5.43077000  0.01398340  1
  Mo  Mo10  1  1.80583000  3.64988000  1.81616000  1
  Mo  Mo11  1  7.29252000  5.51813000  1.79613000  1
  Mo  Mo12  1  3.58342000  3.61332000  -0.00539851  1
  Mo  Mo13  1  5.45791000  5.39121000  -0.03496900  1
  Mo  Mo14  1  5.44080000  3.66895000  1.76253000  1
  Mo  Mo15  1  3.62039000  5.49526000  1.82094000  1
