# generated using pymatgen
data_Mo
_symmetry_space_group_name_H-M   'P 1'
_cell_length_a   7.27880859
_cell_length_b   7.27880859
_cell_length_c   3.63940430
_cell_angle_alpha   90.00000000
_cell_angle_beta   90.00000000
_cell_angle_gamma   90.00000000
_symmetry_Int_Tables_number   1
_chemical_formula_structural   Mo
_chemical_formula_sum   Mo16
_cell_volume   192.81947745
_cell_formula_units_Z   16
loop_
 _symmetry_equiv_pos_site_id
 _symmetry_equiv_pos_as_xyz
  1  'x, y, z'
loop_
 _atom_site_type_symbol
 _atom_site_label
 _atom_site_symmetry_multiplicity
 _atom_site_fract_x
 _atom_site_fract_y
 _atom_site_fract_z
 _atom_site_occupancy
  Mo  Mo0  1  -0.04190220  -0.01709600  3.68021000  1
  Mo  Mo1  1  1.81595000  1.79854000  3.61771000  1
  Mo  Mo2  1  1.81366000  7.26715000  1.84370000  1
  Mo  Mo3  1  -0.01734890  1.83379000  1.81855000  1
  Mo  Mo4  1  3.66925000  0.01950320  -0.00990211  1
  Mo  Mo5  1  5.47042000  1.82189000  3.65361000  1
  Mo  Mo6  1  5.46731000  0.02338600  1.87641000  1
  Mo  Mo7  1  3.63076000  1.81558000  1.77236000  1
  Mo  Mo8  1  0.03284240  3.58453000  -0.02674940  1
  Mo  Mo9  1  1.85208000  5.47688000  0.03346230  1
  Mo  Mo10  1  1.81784000  3.66241000  1.79418000  1
  Mo  Mo11  1  7.25663000  5.47676000  1.90573000  1
  Mo  Mo12  1  3.62782000  3.63985000  -0.05091870  1
  Mo  Mo13  1  5.47244000  5.41868000  -0.02521370  1
  Mo  Mo14  1  5.43148000  3.63255000  1.75927000  1
  Mo  Mo15  1  3.64596000  5.49078000  1.83017000  1
