# generated using pymatgen
data_Mo
_symmetry_space_group_name_H-M   'P 1'
_cell_length_a   7.27880859
_cell_length_b   7.27880859
_cell_length_c   3.63940430
_cell_angle_alpha   90.00000000
_cell_angle_beta   90.00000000
_cell_angle_gamma   90.00000000
_symmetry_Int_Tables_number   1
_chemical_formula_structural   Mo
_chemical_formula_sum   Mo16
_cell_volume   192.81947745
_cell_formula_units_Z   16
loop_
 _symmetry_equiv_pos_site_id
 _symmetry_equiv_pos_as_xyz
  1  'x, y, z'
loop_
 _atom_site_type_symbol
 _atom_site_label
 _atom_site_symmetry_multiplicity
 _atom_site_fract_x
 _atom_site_fract_y
 _atom_site_fract_z
 _atom_site_occupancy
  Mo  Mo0  1  0.00090774  -0.01474480  3.68702000  1
  Mo  Mo1  1  1.83085000  1.83093000  3.65045000  1
  Mo  Mo2  1  1.81495000  7.26758000  1.82820000  1
  Mo  Mo3  1  0.02820000  1.82290000  1.86750000  1
  Mo  Mo4  1  3.67326000  -0.04271250  -0.00085353  1
  Mo  Mo5  1  5.42186000  1.81247000  3.65845000  1
  Mo  Mo6  1  5.46370000  0.05467850  1.83932000  1
  Mo  Mo7  1  3.64168000  1.82457000  1.78815000  1
  Mo  Mo8  1  0.00861777  3.70187000  -0.00114731  1
  Mo  Mo9  1  1.77814000  5.50107000  -0.01315670  1
  Mo  Mo10  1  1.82268000  3.62477000  1.78166000  1
  Mo  Mo11  1  7.22865000  5.41970000  1.80894000  1
  Mo  Mo12  1  3.62277000  3.68212000  0.00583196  1
  Mo  Mo13  1  5.46227000  5.45649000  -0.01126770  1
  Mo  Mo14  1  5.46902000  3.56729000  1.80752000  1
  Mo  Mo15  1  3.67763000  5.43621000  1.77600000  1
