# generated using pymatgen
data_Mo
_symmetry_space_group_name_H-M   'P 1'
_cell_length_a   7.27880859
_cell_length_b   7.27880859
_cell_length_c   3.63940430
_cell_angle_alpha   90.00000000
_cell_angle_beta   90.00000000
_cell_angle_gamma   90.00000000
_symmetry_Int_Tables_number   1
_chemical_formula_structural   Mo
_chemical_formula_sum   Mo16
_cell_volume   192.81947745
_cell_formula_units_Z   16
loop_
 _symmetry_equiv_pos_site_id
 _symmetry_equiv_pos_as_xyz
  1  'x, y, z'
loop_
 _atom_site_type_symbol
 _atom_site_label
 _atom_site_symmetry_multiplicity
 _atom_site_fract_x
 _atom_site_fract_y
 _atom_site_fract_z
 _atom_site_occupancy
  Mo  Mo0  1  0.03242660  0.01465390  3.62922000  1
  Mo  Mo1  1  1.84549000  1.84022000  3.61329000  1
  Mo  Mo2  1  1.78718000  7.27174000  1.79496000  1
  Mo  Mo3  1  -0.00313565  1.82358000  1.79420000  1
  Mo  Mo4  1  3.60739000  -0.02428810  0.01500940  1
  Mo  Mo5  1  5.48993000  1.79762000  3.63708000  1
  Mo  Mo6  1  5.43624000  0.03463950  1.85247000  1
  Mo  Mo7  1  3.62126000  1.84212000  1.82187000  1
  Mo  Mo8  1  -0.04363750  3.62739000  -0.04300420  1
  Mo  Mo9  1  1.84872000  5.40699000  0.05652340  1
  Mo  Mo10  1  1.81194000  3.66908000  1.86082000  1
  Mo  Mo11  1  7.24311000  5.45457000  1.79286000  1
  Mo  Mo12  1  3.68491000  3.61322000  -0.00931193  1
  Mo  Mo13  1  5.47073000  5.46094000  0.00822633  1
  Mo  Mo14  1  5.46767000  3.62173000  1.77953000  1
  Mo  Mo15  1  3.64497000  5.49098000  1.86886000  1
