# generated using pymatgen
data_Mo
_symmetry_space_group_name_H-M   'P 1'
_cell_length_a   7.27880859
_cell_length_b   7.27880859
_cell_length_c   3.63940430
_cell_angle_alpha   90.00000000
_cell_angle_beta   90.00000000
_cell_angle_gamma   90.00000000
_symmetry_Int_Tables_number   1
_chemical_formula_structural   Mo
_chemical_formula_sum   Mo16
_cell_volume   192.81947745
_cell_formula_units_Z   16
loop_
 _symmetry_equiv_pos_site_id
 _symmetry_equiv_pos_as_xyz
  1  'x, y, z'
loop_
 _atom_site_type_symbol
 _atom_site_label
 _atom_site_symmetry_multiplicity
 _atom_site_fract_x
 _atom_site_fract_y
 _atom_site_fract_z
 _atom_site_occupancy
  Mo  Mo0  1  -0.02783700  -0.01901850  3.63415000  1
  Mo  Mo1  1  1.82519000  1.76733000  3.61051000  1
  Mo  Mo2  1  1.85172000  7.30190000  1.83517000  1
  Mo  Mo3  1  0.00680530  1.88087000  1.78730000  1
  Mo  Mo4  1  3.63027000  -0.01798800  0.00752738  1
  Mo  Mo5  1  5.45576000  1.77917000  3.59178000  1
  Mo  Mo6  1  5.46944000  0.00187594  1.78648000  1
  Mo  Mo7  1  3.67111000  1.84833000  1.79908000  1
  Mo  Mo8  1  0.00842778  3.65130000  -0.00809386  1
  Mo  Mo9  1  1.83121000  5.48791000  -0.00247618  1
  Mo  Mo10  1  1.80121000  3.64508000  1.76458000  1
  Mo  Mo11  1  7.29332000  5.45399000  1.80928000  1
  Mo  Mo12  1  3.58732000  3.63061000  0.01966730  1
  Mo  Mo13  1  5.43815000  5.46819000  0.04026160  1
  Mo  Mo14  1  5.47226000  3.64455000  1.87358000  1
  Mo  Mo15  1  3.63084000  5.42109000  1.92381000  1
