# generated using pymatgen
data_Mo
_symmetry_space_group_name_H-M   'P 1'
_cell_length_a   7.27808089
_cell_length_b   7.27808089
_cell_length_c   3.63904047
_cell_angle_alpha   90.00000000
_cell_angle_beta   90.00000000
_cell_angle_gamma   90.00000000
_symmetry_Int_Tables_number   1
_chemical_formula_structural   Mo
_chemical_formula_sum   Mo16
_cell_volume   192.76165285
_cell_formula_units_Z   16
loop_
 _symmetry_equiv_pos_site_id
 _symmetry_equiv_pos_as_xyz
  1  'x, y, z'
loop_
 _atom_site_type_symbol
 _atom_site_label
 _atom_site_symmetry_multiplicity
 _atom_site_fract_x
 _atom_site_fract_y
 _atom_site_fract_z
 _atom_site_occupancy
  Mo  Mo0  1  0.00716800  7.27787000  0.00904496  1
  Mo  Mo1  1  1.81311000  1.82070000  -0.00353267  1
  Mo  Mo2  1  1.82764000  7.28619000  1.80519000  1
  Mo  Mo3  1  7.28847000  1.81954000  1.82154000  1
  Mo  Mo4  1  3.64873000  7.26992000  3.64726000  1
  Mo  Mo5  1  5.46413000  1.80744000  -0.00158578  1
  Mo  Mo6  1  5.44762000  -0.01274300  1.81963000  1
  Mo  Mo7  1  3.63521000  1.83125000  1.82615000  1
  Mo  Mo8  1  7.27432000  3.64532000  3.62920000  1
  Mo  Mo9  1  1.81298000  5.45369000  3.64608000  1
  Mo  Mo10  1  1.83063000  3.64754000  1.83675000  1
  Mo  Mo11  1  7.27465000  5.46134000  1.81651000  1
  Mo  Mo12  1  3.63299000  3.64071000  -0.00342235  1
  Mo  Mo13  1  5.45523000  5.45109000  3.63776000  1
  Mo  Mo14  1  5.46295000  3.64525000  1.82134000  1
  Mo  Mo15  1  3.62625000  5.45697000  1.80410000  1
