# generated using pymatgen
data_Mo
_symmetry_space_group_name_H-M   'P 1'
_cell_length_a   7.27880859
_cell_length_b   7.27880859
_cell_length_c   3.63940430
_cell_angle_alpha   90.00000000
_cell_angle_beta   90.00000000
_cell_angle_gamma   90.00000000
_symmetry_Int_Tables_number   1
_chemical_formula_structural   Mo
_chemical_formula_sum   Mo16
_cell_volume   192.81947745
_cell_formula_units_Z   16
loop_
 _symmetry_equiv_pos_site_id
 _symmetry_equiv_pos_as_xyz
  1  'x, y, z'
loop_
 _atom_site_type_symbol
 _atom_site_label
 _atom_site_symmetry_multiplicity
 _atom_site_fract_x
 _atom_site_fract_y
 _atom_site_fract_z
 _atom_site_occupancy
  Mo  Mo0  1  -0.00476110  0.01215670  3.70081000  1
  Mo  Mo1  1  1.76995000  1.85224000  3.62269000  1
  Mo  Mo2  1  1.83026000  7.25812000  1.86518000  1
  Mo  Mo3  1  0.02181920  1.84058000  1.81218000  1
  Mo  Mo4  1  3.60080000  0.01274500  0.00901978  1
  Mo  Mo5  1  5.43810000  1.78587000  3.60744000  1
  Mo  Mo6  1  5.47350000  0.01938820  1.82748000  1
  Mo  Mo7  1  3.62173000  1.81495000  1.75804000  1
  Mo  Mo8  1  -0.02029500  3.63213000  -0.04460530  1
  Mo  Mo9  1  1.80705000  5.45586000  0.02473370  1
  Mo  Mo10  1  1.84599000  3.63533000  1.78061000  1
  Mo  Mo11  1  7.28441000  5.44317000  1.83573000  1
  Mo  Mo12  1  3.68835000  3.67096000  0.02833480  1
  Mo  Mo13  1  5.44595000  5.51577000  -0.00037632  1
  Mo  Mo14  1  5.46461000  3.59839000  1.78362000  1
  Mo  Mo15  1  3.67773000  5.39752000  1.86170000  1
