# generated using pymatgen
data_Mo
_symmetry_space_group_name_H-M   'P 1'
_cell_length_a   7.27880859
_cell_length_b   7.27880859
_cell_length_c   3.63940430
_cell_angle_alpha   90.00000000
_cell_angle_beta   90.00000000
_cell_angle_gamma   90.00000000
_symmetry_Int_Tables_number   1
_chemical_formula_structural   Mo
_chemical_formula_sum   Mo16
_cell_volume   192.81947745
_cell_formula_units_Z   16
loop_
 _symmetry_equiv_pos_site_id
 _symmetry_equiv_pos_as_xyz
  1  'x, y, z'
loop_
 _atom_site_type_symbol
 _atom_site_label
 _atom_site_symmetry_multiplicity
 _atom_site_fract_x
 _atom_site_fract_y
 _atom_site_fract_z
 _atom_site_occupancy
  Mo  Mo0  1  -0.03826330  0.04472670  3.65277000  1
  Mo  Mo1  1  1.81401000  1.81880000  3.70035000  1
  Mo  Mo2  1  1.79583000  7.25079000  1.84193000  1
  Mo  Mo3  1  -0.01375220  1.80240000  1.84190000  1
  Mo  Mo4  1  3.67772000  0.03326270  0.02000390  1
  Mo  Mo5  1  5.43427000  1.85614000  3.64804000  1
  Mo  Mo6  1  5.42255000  -0.06620920  1.85792000  1
  Mo  Mo7  1  3.65251000  1.79440000  1.83808000  1
  Mo  Mo8  1  0.02406940  3.60993000  -0.04502660  1
  Mo  Mo9  1  1.80039000  5.46862000  -0.08368350  1
  Mo  Mo10  1  1.86268000  3.65974000  1.78475000  1
  Mo  Mo11  1  7.28511000  5.45624000  1.75526000  1
  Mo  Mo12  1  3.63352000  3.61940000  0.00337941  1
  Mo  Mo13  1  5.51020000  5.44824000  0.02305310  1
  Mo  Mo14  1  5.45981000  3.68795000  1.81321000  1
  Mo  Mo15  1  3.62455000  5.46078000  1.82064000  1
