# generated using pymatgen
data_Mo
_symmetry_space_group_name_H-M   'P 1'
_cell_length_a   7.27880859
_cell_length_b   7.27880859
_cell_length_c   3.63940430
_cell_angle_alpha   90.00000000
_cell_angle_beta   90.00000000
_cell_angle_gamma   90.00000000
_symmetry_Int_Tables_number   1
_chemical_formula_structural   Mo
_chemical_formula_sum   Mo16
_cell_volume   192.81947745
_cell_formula_units_Z   16
loop_
 _symmetry_equiv_pos_site_id
 _symmetry_equiv_pos_as_xyz
  1  'x, y, z'
loop_
 _atom_site_type_symbol
 _atom_site_label
 _atom_site_symmetry_multiplicity
 _atom_site_fract_x
 _atom_site_fract_y
 _atom_site_fract_z
 _atom_site_occupancy
  Mo  Mo0  1  -0.03439350  -0.02858730  3.64997000  1
  Mo  Mo1  1  1.78722000  1.78430000  3.58931000  1
  Mo  Mo2  1  1.80809000  7.34491000  1.79005000  1
  Mo  Mo3  1  -0.03444110  1.83176000  1.80656000  1
  Mo  Mo4  1  3.63479000  -0.00421401  0.02404100  1
  Mo  Mo5  1  5.44289000  1.80644000  3.70109000  1
  Mo  Mo6  1  5.46183000  -0.01567120  1.87369000  1
  Mo  Mo7  1  3.67551000  1.84520000  1.85656000  1
  Mo  Mo8  1  0.03711050  3.64899000  -0.00936818  1
  Mo  Mo9  1  1.83567000  5.47831000  0.01548580  1
  Mo  Mo10  1  1.84356000  3.59976000  1.78179000  1
  Mo  Mo11  1  7.30858000  5.43922000  1.85259000  1
  Mo  Mo12  1  3.61145000  3.62044000  -0.00836348  1
  Mo  Mo13  1  5.46136000  5.47093000  -0.02107310  1
  Mo  Mo14  1  5.48464000  3.66659000  1.77801000  1
  Mo  Mo15  1  3.62132000  5.45682000  1.79225000  1
