# generated using pymatgen
data_Mo
_symmetry_space_group_name_H-M   'P 1'
_cell_length_a   7.27880859
_cell_length_b   7.27880859
_cell_length_c   3.63940430
_cell_angle_alpha   90.00000000
_cell_angle_beta   90.00000000
_cell_angle_gamma   90.00000000
_symmetry_Int_Tables_number   1
_chemical_formula_structural   Mo
_chemical_formula_sum   Mo16
_cell_volume   192.81947745
_cell_formula_units_Z   16
loop_
 _symmetry_equiv_pos_site_id
 _symmetry_equiv_pos_as_xyz
  1  'x, y, z'
loop_
 _atom_site_type_symbol
 _atom_site_label
 _atom_site_symmetry_multiplicity
 _atom_site_fract_x
 _atom_site_fract_y
 _atom_site_fract_z
 _atom_site_occupancy
  Mo  Mo0  1  -0.01866860  -0.03309180  3.66525000  1
  Mo  Mo1  1  1.80208000  1.74869000  3.63654000  1
  Mo  Mo2  1  1.85076000  7.29879000  1.80395000  1
  Mo  Mo3  1  0.01723690  1.85193000  1.77528000  1
  Mo  Mo4  1  3.63075000  -0.01182730  0.04559530  1
  Mo  Mo5  1  5.46027000  1.79415000  3.64451000  1
  Mo  Mo6  1  5.47520000  0.00972337  1.87121000  1
  Mo  Mo7  1  3.66699000  1.87020000  1.88217000  1
  Mo  Mo8  1  -0.02443490  3.63436000  -0.01461100  1
  Mo  Mo9  1  1.82827000  5.50638000  0.00938428  1
  Mo  Mo10  1  1.80271000  3.62481000  1.82558000  1
  Mo  Mo11  1  7.29702000  5.43381000  1.83052000  1
  Mo  Mo12  1  3.62342000  3.66598000  -0.01891960  1
  Mo  Mo13  1  5.43494000  5.47708000  -0.04354020  1
  Mo  Mo14  1  5.45480000  3.64035000  1.73928000  1
  Mo  Mo15  1  3.64386000  5.43386000  1.82040000  1
