# generated using pymatgen
data_Mo
_symmetry_space_group_name_H-M   'P 1'
_cell_length_a   7.27880859
_cell_length_b   7.27880859
_cell_length_c   3.63940430
_cell_angle_alpha   90.00000000
_cell_angle_beta   90.00000000
_cell_angle_gamma   90.00000000
_symmetry_Int_Tables_number   1
_chemical_formula_structural   Mo
_chemical_formula_sum   Mo16
_cell_volume   192.81947745
_cell_formula_units_Z   16
loop_
 _symmetry_equiv_pos_site_id
 _symmetry_equiv_pos_as_xyz
  1  'x, y, z'
loop_
 _atom_site_type_symbol
 _atom_site_label
 _atom_site_symmetry_multiplicity
 _atom_site_fract_x
 _atom_site_fract_y
 _atom_site_fract_z
 _atom_site_occupancy
  Mo  Mo0  1  0.02851080  -0.01855110  3.66052000  1
  Mo  Mo1  1  1.82309000  1.85891000  3.63449000  1
  Mo  Mo2  1  1.82785000  7.24585000  1.88992000  1
  Mo  Mo3  1  0.01136310  1.80755000  1.79513000  1
  Mo  Mo4  1  3.59437000  0.02340790  0.03321820  1
  Mo  Mo5  1  5.44284000  1.81136000  3.59843000  1
  Mo  Mo6  1  5.46275000  0.01215680  1.79884000  1
  Mo  Mo7  1  3.62165000  1.77628000  1.78406000  1
  Mo  Mo8  1  -0.02343860  3.61704000  -0.04612570  1
  Mo  Mo9  1  1.81391000  5.40763000  0.01430650  1
  Mo  Mo10  1  1.84193000  3.67527000  1.76533000  1
  Mo  Mo11  1  7.25596000  5.48711000  1.82542000  1
  Mo  Mo12  1  3.66149000  3.63887000  0.01248200  1
  Mo  Mo13  1  5.44979000  5.45354000  0.02865690  1
  Mo  Mo14  1  5.49414000  3.64785000  1.82430000  1
  Mo  Mo15  1  3.63898000  5.50092000  1.85361000  1
