# generated using pymatgen
data_Mo
_symmetry_space_group_name_H-M   'P 1'
_cell_length_a   7.27880859
_cell_length_b   7.27880859
_cell_length_c   3.63940430
_cell_angle_alpha   90.00000000
_cell_angle_beta   90.00000000
_cell_angle_gamma   90.00000000
_symmetry_Int_Tables_number   1
_chemical_formula_structural   Mo
_chemical_formula_sum   Mo16
_cell_volume   192.81947745
_cell_formula_units_Z   16
loop_
 _symmetry_equiv_pos_site_id
 _symmetry_equiv_pos_as_xyz
  1  'x, y, z'
loop_
 _atom_site_type_symbol
 _atom_site_label
 _atom_site_symmetry_multiplicity
 _atom_site_fract_x
 _atom_site_fract_y
 _atom_site_fract_z
 _atom_site_occupancy
  Mo  Mo0  1  -0.04628680  -0.03670190  3.63491000  1
  Mo  Mo1  1  1.84585000  1.76610000  3.66338000  1
  Mo  Mo2  1  1.79114000  7.28346000  1.84011000  1
  Mo  Mo3  1  0.02331460  1.85463000  1.83188000  1
  Mo  Mo4  1  3.67385000  0.00319643  -0.01493180  1
  Mo  Mo5  1  5.47947000  1.80810000  3.62701000  1
  Mo  Mo6  1  5.47612000  0.02947350  1.83280000  1
  Mo  Mo7  1  3.62106000  1.83685000  1.76896000  1
  Mo  Mo8  1  0.02747790  3.61441000  -0.00382241  1
  Mo  Mo9  1  1.84140000  5.50290000  -0.02843500  1
  Mo  Mo10  1  1.81632000  3.63404000  1.78076000  1
  Mo  Mo11  1  7.23996000  5.46606000  1.85806000  1
  Mo  Mo12  1  3.63296000  3.64978000  -0.01597480  1
  Mo  Mo13  1  5.46183000  5.43923000  0.01570890  1
  Mo  Mo14  1  5.43778000  3.62795000  1.83033000  1
  Mo  Mo15  1  3.62293000  5.46572000  1.85185000  1
