# generated using pymatgen
data_Mo
_symmetry_space_group_name_H-M   'P 1'
_cell_length_a   7.27880859
_cell_length_b   7.27880859
_cell_length_c   3.63940430
_cell_angle_alpha   90.00000000
_cell_angle_beta   90.00000000
_cell_angle_gamma   90.00000000
_symmetry_Int_Tables_number   1
_chemical_formula_structural   Mo
_chemical_formula_sum   Mo16
_cell_volume   192.81947745
_cell_formula_units_Z   16
loop_
 _symmetry_equiv_pos_site_id
 _symmetry_equiv_pos_as_xyz
  1  'x, y, z'
loop_
 _atom_site_type_symbol
 _atom_site_label
 _atom_site_symmetry_multiplicity
 _atom_site_fract_x
 _atom_site_fract_y
 _atom_site_fract_z
 _atom_site_occupancy
  Mo  Mo0  1  0.03744840  0.02885790  3.59475000  1
  Mo  Mo1  1  1.83029000  1.86386000  3.63542000  1
  Mo  Mo2  1  1.83220000  7.25668000  1.77370000  1
  Mo  Mo3  1  0.01747560  1.78355000  1.78794000  1
  Mo  Mo4  1  3.59054000  -0.00831255  -0.00647139  1
  Mo  Mo5  1  5.47266000  1.81199000  3.64778000  1
  Mo  Mo6  1  5.47761000  -0.01452380  1.80802000  1
  Mo  Mo7  1  3.63196000  1.80730000  1.87300000  1
  Mo  Mo8  1  -0.01880050  3.66188000  0.04936890  1
  Mo  Mo9  1  1.82848000  5.44148000  -0.02202980  1
  Mo  Mo10  1  1.80150000  3.64049000  1.84004000  1
  Mo  Mo11  1  7.27049000  5.46562000  1.82995000  1
  Mo  Mo12  1  3.63360000  3.64721000  0.01061810  1
  Mo  Mo13  1  5.45464000  5.48938000  -0.00058755  1
  Mo  Mo14  1  5.43029000  3.61947000  1.84927000  1
  Mo  Mo15  1  3.65480000  5.45025000  1.80183000  1
