# generated using pymatgen
data_Mo
_symmetry_space_group_name_H-M   'P 1'
_cell_length_a   7.27880859
_cell_length_b   7.27880859
_cell_length_c   3.63940430
_cell_angle_alpha   90.00000000
_cell_angle_beta   90.00000000
_cell_angle_gamma   90.00000000
_symmetry_Int_Tables_number   1
_chemical_formula_structural   Mo
_chemical_formula_sum   Mo16
_cell_volume   192.81947745
_cell_formula_units_Z   16
loop_
 _symmetry_equiv_pos_site_id
 _symmetry_equiv_pos_as_xyz
  1  'x, y, z'
loop_
 _atom_site_type_symbol
 _atom_site_label
 _atom_site_symmetry_multiplicity
 _atom_site_fract_x
 _atom_site_fract_y
 _atom_site_fract_z
 _atom_site_occupancy
  Mo  Mo0  1  0.03177160  -0.00253530  3.63280000  1
  Mo  Mo1  1  1.80675000  1.90194000  3.64782000  1
  Mo  Mo2  1  1.84071000  7.24904000  1.81589000  1
  Mo  Mo3  1  0.01119540  1.79930000  1.87092000  1
  Mo  Mo4  1  3.61528000  0.03445870  -0.05051670  1
  Mo  Mo5  1  5.43674000  1.81722000  3.65108000  1
  Mo  Mo6  1  5.49863000  -0.00062523  1.78443000  1
  Mo  Mo7  1  3.65031000  1.77582000  1.81635000  1
  Mo  Mo8  1  -0.02730600  3.62872000  0.01528780  1
  Mo  Mo9  1  1.79549000  5.39977000  -0.06162920  1
  Mo  Mo10  1  1.83196000  3.65027000  1.81690000  1
  Mo  Mo11  1  7.23880000  5.49182000  1.79841000  1
  Mo  Mo12  1  3.64320000  3.63703000  0.06048810  1
  Mo  Mo13  1  5.43793000  5.46973000  -0.01975860  1
  Mo  Mo14  1  5.45348000  3.62943000  1.87872000  1
  Mo  Mo15  1  3.68026000  5.46380000  1.81541000  1
