# generated using pymatgen
data_Mo
_symmetry_space_group_name_H-M   'P 1'
_cell_length_a   7.27808089
_cell_length_b   7.27808089
_cell_length_c   3.63904047
_cell_angle_alpha   90.00000000
_cell_angle_beta   90.00000000
_cell_angle_gamma   90.00000000
_symmetry_Int_Tables_number   1
_chemical_formula_structural   Mo
_chemical_formula_sum   Mo16
_cell_volume   192.76165285
_cell_formula_units_Z   16
loop_
 _symmetry_equiv_pos_site_id
 _symmetry_equiv_pos_as_xyz
  1  'x, y, z'
loop_
 _atom_site_type_symbol
 _atom_site_label
 _atom_site_symmetry_multiplicity
 _atom_site_fract_x
 _atom_site_fract_y
 _atom_site_fract_z
 _atom_site_occupancy
  Mo  Mo0  1  0.01232760  7.28289000  -0.00519818  1
  Mo  Mo1  1  1.81841000  1.82168000  0.00710961  1
  Mo  Mo2  1  1.81010000  7.28029000  1.81706000  1
  Mo  Mo3  1  7.27231000  1.82063000  1.81877000  1
  Mo  Mo4  1  3.65435000  7.28004000  3.64186000  1
  Mo  Mo5  1  5.46050000  1.81353000  -0.00395115  1
  Mo  Mo6  1  5.45712000  -0.00024601  1.80596000  1
  Mo  Mo7  1  3.64361000  1.82165000  1.81777000  1
  Mo  Mo8  1  7.26416000  3.64160000  3.62915000  1
  Mo  Mo9  1  1.82797000  5.46920000  3.63823000  1
  Mo  Mo10  1  1.81847000  3.62902000  1.81773000  1
  Mo  Mo11  1  7.27204000  5.46145000  1.81620000  1
  Mo  Mo12  1  3.62906000  3.64470000  0.00371292  1
  Mo  Mo13  1  5.45063000  5.45716000  3.64100000  1
  Mo  Mo14  1  5.47354000  3.61666000  1.83360000  1
  Mo  Mo15  1  3.63748000  5.46183000  1.83300000  1
