# generated using pymatgen
data_Mo
_symmetry_space_group_name_H-M   'P 1'
_cell_length_a   7.27880859
_cell_length_b   7.27880859
_cell_length_c   3.63940430
_cell_angle_alpha   90.00000000
_cell_angle_beta   90.00000000
_cell_angle_gamma   90.00000000
_symmetry_Int_Tables_number   1
_chemical_formula_structural   Mo
_chemical_formula_sum   Mo16
_cell_volume   192.81947745
_cell_formula_units_Z   16
loop_
 _symmetry_equiv_pos_site_id
 _symmetry_equiv_pos_as_xyz
  1  'x, y, z'
loop_
 _atom_site_type_symbol
 _atom_site_label
 _atom_site_symmetry_multiplicity
 _atom_site_fract_x
 _atom_site_fract_y
 _atom_site_fract_z
 _atom_site_occupancy
  Mo  Mo0  1  -0.00193914  -0.02745510  3.63327000  1
  Mo  Mo1  1  1.82745000  1.79631000  3.63407000  1
  Mo  Mo2  1  1.85032000  7.25779000  1.79057000  1
  Mo  Mo3  1  0.04449770  1.85788000  1.85801000  1
  Mo  Mo4  1  3.60904000  0.01474060  -0.05373820  1
  Mo  Mo5  1  5.46082000  1.78804000  3.69413000  1
  Mo  Mo6  1  5.50278000  0.02791390  1.80272000  1
  Mo  Mo7  1  3.63059000  1.81194000  1.81529000  1
  Mo  Mo8  1  -0.03168960  3.64603000  -0.00050486  1
  Mo  Mo9  1  1.79549000  5.51108000  -0.02434970  1
  Mo  Mo10  1  1.81407000  3.62927000  1.82703000  1
  Mo  Mo11  1  7.27017000  5.41358000  1.78817000  1
  Mo  Mo12  1  3.66025000  3.68068000  0.08476990  1
  Mo  Mo13  1  5.43055000  5.51037000  -0.05218650  1
  Mo  Mo14  1  5.46346000  3.60064000  1.83949000  1
  Mo  Mo15  1  3.61933000  5.42638000  1.83585000  1
