# generated using pymatgen
data_Mo
_symmetry_space_group_name_H-M   'P 1'
_cell_length_a   7.27880859
_cell_length_b   7.27880859
_cell_length_c   3.63940430
_cell_angle_alpha   90.00000000
_cell_angle_beta   90.00000000
_cell_angle_gamma   90.00000000
_symmetry_Int_Tables_number   1
_chemical_formula_structural   Mo
_chemical_formula_sum   Mo16
_cell_volume   192.81947745
_cell_formula_units_Z   16
loop_
 _symmetry_equiv_pos_site_id
 _symmetry_equiv_pos_as_xyz
  1  'x, y, z'
loop_
 _atom_site_type_symbol
 _atom_site_label
 _atom_site_symmetry_multiplicity
 _atom_site_fract_x
 _atom_site_fract_y
 _atom_site_fract_z
 _atom_site_occupancy
  Mo  Mo0  1  0.01698190  -0.00877368  3.65767000  1
  Mo  Mo1  1  1.83162000  1.79835000  3.69272000  1
  Mo  Mo2  1  1.75933000  7.31927000  1.82762000  1
  Mo  Mo3  1  0.00259727  1.82261000  1.82695000  1
  Mo  Mo4  1  3.64100000  -0.03560920  -0.00393060  1
  Mo  Mo5  1  5.43018000  1.83929000  3.65441000  1
  Mo  Mo6  1  5.44792000  0.03949790  1.88390000  1
  Mo  Mo7  1  3.62743000  1.81067000  1.85866000  1
  Mo  Mo8  1  0.04380120  3.65050000  -0.04175320  1
  Mo  Mo9  1  1.85283000  5.50873000  -0.10457600  1
  Mo  Mo10  1  1.80770000  3.60994000  1.81385000  1
  Mo  Mo11  1  7.27190000  5.44340000  1.76590000  1
  Mo  Mo12  1  3.62714000  3.70758000  -0.01535130  1
  Mo  Mo13  1  5.47079000  5.44910000  0.02658140  1
  Mo  Mo14  1  5.46635000  3.55794000  1.83367000  1
  Mo  Mo15  1  3.64761000  5.43269000  1.79626000  1
