# generated using pymatgen
data_Mo
_symmetry_space_group_name_H-M   'P 1'
_cell_length_a   7.27880859
_cell_length_b   7.27880859
_cell_length_c   3.63940430
_cell_angle_alpha   90.00000000
_cell_angle_beta   90.00000000
_cell_angle_gamma   90.00000000
_symmetry_Int_Tables_number   1
_chemical_formula_structural   Mo
_chemical_formula_sum   Mo16
_cell_volume   192.81947745
_cell_formula_units_Z   16
loop_
 _symmetry_equiv_pos_site_id
 _symmetry_equiv_pos_as_xyz
  1  'x, y, z'
loop_
 _atom_site_type_symbol
 _atom_site_label
 _atom_site_symmetry_multiplicity
 _atom_site_fract_x
 _atom_site_fract_y
 _atom_site_fract_z
 _atom_site_occupancy
  Mo  Mo0  1  0.01645600  0.01631020  3.63750000  1
  Mo  Mo1  1  1.80283000  1.81247000  3.61619000  1
  Mo  Mo2  1  1.77549000  7.26322000  1.80456000  1
  Mo  Mo3  1  0.00486869  1.81510000  1.78163000  1
  Mo  Mo4  1  3.65281000  -0.01918650  0.04501730  1
  Mo  Mo5  1  5.46613000  1.81777000  3.63051000  1
  Mo  Mo6  1  5.43918000  -0.00257687  1.83174000  1
  Mo  Mo7  1  3.60870000  1.81021000  1.83483000  1
  Mo  Mo8  1  0.02194850  3.66423000  -0.00202572  1
  Mo  Mo9  1  1.83352000  5.44497000  0.04742430  1
  Mo  Mo10  1  1.84991000  3.67137000  1.85128000  1
  Mo  Mo11  1  7.27094000  5.45840000  1.79653000  1
  Mo  Mo12  1  3.61349000  3.60984000  -0.02121190  1
  Mo  Mo13  1  5.48129000  5.45464000  0.01574000  1
  Mo  Mo14  1  5.43945000  3.64417000  1.79091000  1
  Mo  Mo15  1  3.66817000  5.48425000  1.81197000  1
