# generated using pymatgen
data_Mo
_symmetry_space_group_name_H-M   'P 1'
_cell_length_a   7.27880859
_cell_length_b   7.27880859
_cell_length_c   3.63940430
_cell_angle_alpha   90.00000000
_cell_angle_beta   90.00000000
_cell_angle_gamma   90.00000000
_symmetry_Int_Tables_number   1
_chemical_formula_structural   Mo
_chemical_formula_sum   Mo16
_cell_volume   192.81947745
_cell_formula_units_Z   16
loop_
 _symmetry_equiv_pos_site_id
 _symmetry_equiv_pos_as_xyz
  1  'x, y, z'
loop_
 _atom_site_type_symbol
 _atom_site_label
 _atom_site_symmetry_multiplicity
 _atom_site_fract_x
 _atom_site_fract_y
 _atom_site_fract_z
 _atom_site_occupancy
  Mo  Mo0  1  -0.00098870  -0.01593590  3.59133000  1
  Mo  Mo1  1  1.86270000  1.80715000  3.61787000  1
  Mo  Mo2  1  1.77535000  7.28662000  1.84124000  1
  Mo  Mo3  1  0.00341804  1.82250000  1.78462000  1
  Mo  Mo4  1  3.65557000  -0.01545350  -0.00781006  1
  Mo  Mo5  1  5.42424000  1.86149000  3.67250000  1
  Mo  Mo6  1  5.45607000  0.03552850  1.79552000  1
  Mo  Mo7  1  3.62569000  1.80991000  1.83293000  1
  Mo  Mo8  1  0.03104470  3.66816000  0.01732340  1
  Mo  Mo9  1  1.83664000  5.47491000  0.04152160  1
  Mo  Mo10  1  1.81902000  3.59109000  1.86606000  1
  Mo  Mo11  1  7.26093000  5.44440000  1.79250000  1
  Mo  Mo12  1  3.61115000  3.68005000  0.00896239  1
  Mo  Mo13  1  5.48850000  5.47504000  -0.05972460  1
  Mo  Mo14  1  5.47183000  3.58941000  1.85136000  1
  Mo  Mo15  1  3.62402000  5.43033000  1.82638000  1
