# generated using pymatgen
data_Mo
_symmetry_space_group_name_H-M   'P 1'
_cell_length_a   7.27880859
_cell_length_b   7.27880859
_cell_length_c   3.63940430
_cell_angle_alpha   90.00000000
_cell_angle_beta   90.00000000
_cell_angle_gamma   90.00000000
_symmetry_Int_Tables_number   1
_chemical_formula_structural   Mo
_chemical_formula_sum   Mo16
_cell_volume   192.81947745
_cell_formula_units_Z   16
loop_
 _symmetry_equiv_pos_site_id
 _symmetry_equiv_pos_as_xyz
  1  'x, y, z'
loop_
 _atom_site_type_symbol
 _atom_site_label
 _atom_site_symmetry_multiplicity
 _atom_site_fract_x
 _atom_site_fract_y
 _atom_site_fract_z
 _atom_site_occupancy
  Mo  Mo0  1  -0.03001620  0.00846360  3.65691000  1
  Mo  Mo1  1  1.80763000  1.78090000  3.62815000  1
  Mo  Mo2  1  1.81004000  7.28162000  1.85026000  1
  Mo  Mo3  1  0.00084177  1.83115000  1.79287000  1
  Mo  Mo4  1  3.68133000  -0.00169230  0.05048850  1
  Mo  Mo5  1  5.42860000  1.84516000  3.59900000  1
  Mo  Mo6  1  5.46266000  0.02059060  1.82056000  1
  Mo  Mo7  1  3.62145000  1.81326000  1.84655000  1
  Mo  Mo8  1  -0.01329400  3.67667000  0.02085620  1
  Mo  Mo9  1  1.82910000  5.51300000  0.01223790  1
  Mo  Mo10  1  1.83605000  3.62949000  1.82086000  1
  Mo  Mo11  1  7.29269000  5.40029000  1.81999000  1
  Mo  Mo12  1  3.62415000  3.63646000  -0.05445440  1
  Mo  Mo13  1  5.45259000  5.46065000  0.02220810  1
  Mo  Mo14  1  5.47025000  3.58899000  1.81154000  1
  Mo  Mo15  1  3.67112000  5.46018000  1.77458000  1
