# generated using pymatgen
data_Mo
_symmetry_space_group_name_H-M   'P 1'
_cell_length_a   7.27880859
_cell_length_b   7.27880859
_cell_length_c   3.63940430
_cell_angle_alpha   90.00000000
_cell_angle_beta   90.00000000
_cell_angle_gamma   90.00000000
_symmetry_Int_Tables_number   1
_chemical_formula_structural   Mo
_chemical_formula_sum   Mo16
_cell_volume   192.81947745
_cell_formula_units_Z   16
loop_
 _symmetry_equiv_pos_site_id
 _symmetry_equiv_pos_as_xyz
  1  'x, y, z'
loop_
 _atom_site_type_symbol
 _atom_site_label
 _atom_site_symmetry_multiplicity
 _atom_site_fract_x
 _atom_site_fract_y
 _atom_site_fract_z
 _atom_site_occupancy
  Mo  Mo0  1  0.03334550  0.02078370  3.68923000  1
  Mo  Mo1  1  1.82373000  1.86785000  3.64247000  1
  Mo  Mo2  1  1.77078000  7.27735000  1.89142000  1
  Mo  Mo3  1  -0.01325870  1.79435000  1.81896000  1
  Mo  Mo4  1  3.62511000  -0.01991140  -0.00947434  1
  Mo  Mo5  1  5.46207000  1.80128000  3.59129000  1
  Mo  Mo6  1  5.44642000  0.01883890  1.81023000  1
  Mo  Mo7  1  3.59777000  1.81906000  1.80347000  1
  Mo  Mo8  1  -0.01011990  3.62861000  -0.02898000  1
  Mo  Mo9  1  1.85910000  5.38110000  0.01953260  1
  Mo  Mo10  1  1.82222000  3.67257000  1.77245000  1
  Mo  Mo11  1  7.25345000  5.49352000  1.85883000  1
  Mo  Mo12  1  3.64920000  3.59849000  -0.07227370  1
  Mo  Mo13  1  5.49252000  5.45098000  0.04152420  1
  Mo  Mo14  1  5.45454000  3.63420000  1.83200000  1
  Mo  Mo15  1  3.67832000  5.50611000  1.81192000  1
