# generated using pymatgen
data_Mo
_symmetry_space_group_name_H-M   'P 1'
_cell_length_a   7.27880859
_cell_length_b   7.27880859
_cell_length_c   3.63940430
_cell_angle_alpha   90.00000000
_cell_angle_beta   90.00000000
_cell_angle_gamma   90.00000000
_symmetry_Int_Tables_number   1
_chemical_formula_structural   Mo
_chemical_formula_sum   Mo16
_cell_volume   192.81947745
_cell_formula_units_Z   16
loop_
 _symmetry_equiv_pos_site_id
 _symmetry_equiv_pos_as_xyz
  1  'x, y, z'
loop_
 _atom_site_type_symbol
 _atom_site_label
 _atom_site_symmetry_multiplicity
 _atom_site_fract_x
 _atom_site_fract_y
 _atom_site_fract_z
 _atom_site_occupancy
  Mo  Mo0  1  -0.03490050  0.02105190  3.74888000  1
  Mo  Mo1  1  1.80069000  1.80842000  3.57931000  1
  Mo  Mo2  1  1.80483000  7.27433000  1.83269000  1
  Mo  Mo3  1  0.01249650  1.76825000  1.85012000  1
  Mo  Mo4  1  3.67943000  0.01384630  -0.01187430  1
  Mo  Mo5  1  5.46438000  1.84809000  3.62475000  1
  Mo  Mo6  1  5.47122000  0.00568450  1.85167000  1
  Mo  Mo7  1  3.65178000  1.81397000  1.75280000  1
  Mo  Mo8  1  0.02389130  3.63462000  -0.02130220  1
  Mo  Mo9  1  1.80505000  5.48570000  0.04938700  1
  Mo  Mo10  1  1.85781000  3.64917000  1.80473000  1
  Mo  Mo11  1  7.26791000  5.42558000  1.80727000  1
  Mo  Mo12  1  3.59881000  3.65496000  -0.03211780  1
  Mo  Mo13  1  5.42017000  5.45109000  0.03156600  1
  Mo  Mo14  1  5.45157000  3.60575000  1.78483000  1
  Mo  Mo15  1  3.67006000  5.48468000  1.81988000  1
