# generated using pymatgen
data_Mo
_symmetry_space_group_name_H-M   'P 1'
_cell_length_a   7.27880859
_cell_length_b   7.27880859
_cell_length_c   3.63940430
_cell_angle_alpha   90.00000000
_cell_angle_beta   90.00000000
_cell_angle_gamma   90.00000000
_symmetry_Int_Tables_number   1
_chemical_formula_structural   Mo
_chemical_formula_sum   Mo16
_cell_volume   192.81947745
_cell_formula_units_Z   16
loop_
 _symmetry_equiv_pos_site_id
 _symmetry_equiv_pos_as_xyz
  1  'x, y, z'
loop_
 _atom_site_type_symbol
 _atom_site_label
 _atom_site_symmetry_multiplicity
 _atom_site_fract_x
 _atom_site_fract_y
 _atom_site_fract_z
 _atom_site_occupancy
  Mo  Mo0  1  0.01921780  0.01242110  3.60994000  1
  Mo  Mo1  1  1.82194000  1.82540000  3.60840000  1
  Mo  Mo2  1  1.81577000  7.19889000  1.85434000  1
  Mo  Mo3  1  0.02444720  1.80082000  1.76695000  1
  Mo  Mo4  1  3.66991000  0.01947600  0.00647936  1
  Mo  Mo5  1  5.42801000  1.83409000  3.60740000  1
  Mo  Mo6  1  5.44968000  0.02539040  1.81735000  1
  Mo  Mo7  1  3.60158000  1.78564000  1.75761000  1
  Mo  Mo8  1  0.04350840  3.61088000  0.00408481  1
  Mo  Mo9  1  1.81356000  5.44986000  0.08170860  1
  Mo  Mo10  1  1.81701000  3.69382000  1.82159000  1
  Mo  Mo11  1  7.23159000  5.46073000  1.82974000  1
  Mo  Mo12  1  3.61594000  3.61949000  0.03275460  1
  Mo  Mo13  1  5.48241000  5.44475000  0.01925310  1
  Mo  Mo14  1  5.45539000  3.66949000  1.80908000  1
  Mo  Mo15  1  3.65524000  5.49404000  1.84591000  1
