# generated using pymatgen
data_Mo
_symmetry_space_group_name_H-M   'P 1'
_cell_length_a   7.27880859
_cell_length_b   7.27880859
_cell_length_c   3.63940430
_cell_angle_alpha   90.00000000
_cell_angle_beta   90.00000000
_cell_angle_gamma   90.00000000
_symmetry_Int_Tables_number   1
_chemical_formula_structural   Mo
_chemical_formula_sum   Mo16
_cell_volume   192.81947745
_cell_formula_units_Z   16
loop_
 _symmetry_equiv_pos_site_id
 _symmetry_equiv_pos_as_xyz
  1  'x, y, z'
loop_
 _atom_site_type_symbol
 _atom_site_label
 _atom_site_symmetry_multiplicity
 _atom_site_fract_x
 _atom_site_fract_y
 _atom_site_fract_z
 _atom_site_occupancy
  Mo  Mo0  1  -0.04757660  0.01912270  3.62092000  1
  Mo  Mo1  1  1.79204000  1.82582000  3.60717000  1
  Mo  Mo2  1  1.83846000  7.27256000  1.74420000  1
  Mo  Mo3  1  0.01665890  1.83695000  1.79608000  1
  Mo  Mo4  1  3.63458000  0.00113395  -0.01815570  1
  Mo  Mo5  1  5.45663000  1.82948000  3.65825000  1
  Mo  Mo6  1  5.45813000  -0.01015490  1.82831000  1
  Mo  Mo7  1  3.66654000  1.78869000  1.85301000  1
  Mo  Mo8  1  -0.01622770  3.65236000  0.07275970  1
  Mo  Mo9  1  1.80561000  5.47075000  -0.00494193  1
  Mo  Mo10  1  1.80849000  3.63558000  1.85762000  1
  Mo  Mo11  1  7.31078000  5.45911000  1.85348000  1
  Mo  Mo12  1  3.65538000  3.63028000  0.01089240  1
  Mo  Mo13  1  5.45151000  5.45933000  -0.03133720  1
  Mo  Mo14  1  5.45475000  3.62071000  1.81811000  1
  Mo  Mo15  1  3.65946000  5.45347000  1.80623000  1
