# generated using pymatgen
data_Mo
_symmetry_space_group_name_H-M   'P 1'
_cell_length_a   7.27880859
_cell_length_b   7.27880859
_cell_length_c   3.63940430
_cell_angle_alpha   90.00000000
_cell_angle_beta   90.00000000
_cell_angle_gamma   90.00000000
_symmetry_Int_Tables_number   1
_chemical_formula_structural   Mo
_chemical_formula_sum   Mo16
_cell_volume   192.81947745
_cell_formula_units_Z   16
loop_
 _symmetry_equiv_pos_site_id
 _symmetry_equiv_pos_as_xyz
  1  'x, y, z'
loop_
 _atom_site_type_symbol
 _atom_site_label
 _atom_site_symmetry_multiplicity
 _atom_site_fract_x
 _atom_site_fract_y
 _atom_site_fract_z
 _atom_site_occupancy
  Mo  Mo0  1  0.03085130  0.01440040  3.66405000  1
  Mo  Mo1  1  1.79004000  1.88371000  3.63287000  1
  Mo  Mo2  1  1.82423000  7.24576000  1.82054000  1
  Mo  Mo3  1  -0.01672950  1.79782000  1.83985000  1
  Mo  Mo4  1  3.58181000  0.01104700  0.01619640  1
  Mo  Mo5  1  5.43660000  1.82641000  3.64884000  1
  Mo  Mo6  1  5.47815000  -0.00080083  1.86449000  1
  Mo  Mo7  1  3.62311000  1.76081000  1.80216000  1
  Mo  Mo8  1  -0.02214700  3.61532000  0.03073040  1
  Mo  Mo9  1  1.84012000  5.40378000  0.00122414  1
  Mo  Mo10  1  1.84863000  3.67052000  1.84130000  1
  Mo  Mo11  1  7.25876000  5.51086000  1.86551000  1
  Mo  Mo12  1  3.66346000  3.64116000  -0.05144800  1
  Mo  Mo13  1  5.44595000  5.44513000  -0.03421310  1
  Mo  Mo14  1  5.48412000  3.63911000  1.76085000  1
  Mo  Mo15  1  3.67822000  5.48016000  1.76965000  1
