# generated using pymatgen
data_Mo
_symmetry_space_group_name_H-M   'P 1'
_cell_length_a   7.27808089
_cell_length_b   7.27808089
_cell_length_c   3.63904047
_cell_angle_alpha   90.00000000
_cell_angle_beta   90.00000000
_cell_angle_gamma   90.00000000
_symmetry_Int_Tables_number   1
_chemical_formula_structural   Mo
_chemical_formula_sum   Mo16
_cell_volume   192.76165285
_cell_formula_units_Z   16
loop_
 _symmetry_equiv_pos_site_id
 _symmetry_equiv_pos_as_xyz
  1  'x, y, z'
loop_
 _atom_site_type_symbol
 _atom_site_label
 _atom_site_symmetry_multiplicity
 _atom_site_fract_x
 _atom_site_fract_y
 _atom_site_fract_z
 _atom_site_occupancy
  Mo  Mo0  1  -0.01489810  7.26803000  0.00101353  1
  Mo  Mo1  1  1.82324000  1.82783000  0.00666921  1
  Mo  Mo2  1  1.83047000  7.28188000  1.83614000  1
  Mo  Mo3  1  7.29757000  1.82199000  1.83126000  1
  Mo  Mo4  1  3.62696000  7.26871000  3.63322000  1
  Mo  Mo5  1  5.46894000  1.82616000  0.00085863  1
  Mo  Mo6  1  5.46150000  -0.00362302  1.81878000  1
  Mo  Mo7  1  3.63197000  1.81076000  1.82063000  1
  Mo  Mo8  1  7.28922000  3.63528000  3.65349000  1
  Mo  Mo9  1  1.81041000  5.46314000  3.62318000  1
  Mo  Mo10  1  1.81956000  3.64722000  1.81082000  1
  Mo  Mo11  1  7.27935000  5.45441000  1.81574000  1
  Mo  Mo12  1  3.64326000  3.63504000  -0.00401400  1
  Mo  Mo13  1  5.45691000  5.46094000  3.63400000  1
  Mo  Mo14  1  5.43937000  3.64881000  1.81876000  1
  Mo  Mo15  1  3.63825000  5.45551000  1.81145000  1
