# generated using pymatgen
data_Mo
_symmetry_space_group_name_H-M   'P 1'
_cell_length_a   7.27880859
_cell_length_b   7.27880859
_cell_length_c   3.63940430
_cell_angle_alpha   90.00000000
_cell_angle_beta   90.00000000
_cell_angle_gamma   90.00000000
_symmetry_Int_Tables_number   1
_chemical_formula_structural   Mo
_chemical_formula_sum   Mo16
_cell_volume   192.81947745
_cell_formula_units_Z   16
loop_
 _symmetry_equiv_pos_site_id
 _symmetry_equiv_pos_as_xyz
  1  'x, y, z'
loop_
 _atom_site_type_symbol
 _atom_site_label
 _atom_site_symmetry_multiplicity
 _atom_site_fract_x
 _atom_site_fract_y
 _atom_site_fract_z
 _atom_site_occupancy
  Mo  Mo0  1  -0.02638450  -0.01628830  3.65921000  1
  Mo  Mo1  1  1.82850000  1.82278000  3.64926000  1
  Mo  Mo2  1  1.80064000  7.30712000  1.79767000  1
  Mo  Mo3  1  -0.05204380  1.79093000  1.79223000  1
  Mo  Mo4  1  3.66286000  0.04091480  -0.02124850  1
  Mo  Mo5  1  5.47084000  1.84366000  3.60620000  1
  Mo  Mo6  1  5.47076000  -0.03164820  1.84174000  1
  Mo  Mo7  1  3.64490000  1.80357000  1.80160000  1
  Mo  Mo8  1  0.01571240  3.65209000  0.00702591  1
  Mo  Mo9  1  1.82415000  5.46599000  -0.02271040  1
  Mo  Mo10  1  1.81416000  3.59352000  1.84380000  1
  Mo  Mo11  1  7.31878000  5.47997000  1.84486000  1
  Mo  Mo12  1  3.63561000  3.63359000  -0.00798629  1
  Mo  Mo13  1  5.47349000  5.43022000  0.05010320  1
  Mo  Mo14  1  5.44856000  3.65816000  1.82876000  1
  Mo  Mo15  1  3.61466000  5.47061000  1.80208000  1
