# generated using pymatgen
data_Mo
_symmetry_space_group_name_H-M   'P 1'
_cell_length_a   7.27880859
_cell_length_b   7.27880859
_cell_length_c   3.63940430
_cell_angle_alpha   90.00000000
_cell_angle_beta   90.00000000
_cell_angle_gamma   90.00000000
_symmetry_Int_Tables_number   1
_chemical_formula_structural   Mo
_chemical_formula_sum   Mo16
_cell_volume   192.81947745
_cell_formula_units_Z   16
loop_
 _symmetry_equiv_pos_site_id
 _symmetry_equiv_pos_as_xyz
  1  'x, y, z'
loop_
 _atom_site_type_symbol
 _atom_site_label
 _atom_site_symmetry_multiplicity
 _atom_site_fract_x
 _atom_site_fract_y
 _atom_site_fract_z
 _atom_site_occupancy
  Mo  Mo0  1  -0.01905410  -0.03631680  3.67774000  1
  Mo  Mo1  1  1.83601000  1.75900000  3.59432000  1
  Mo  Mo2  1  1.83174000  7.26313000  1.84371000  1
  Mo  Mo3  1  0.05175740  1.84104000  1.83536000  1
  Mo  Mo4  1  3.63633000  -0.05300140  -0.01600240  1
  Mo  Mo5  1  5.46190000  1.83354000  3.63960000  1
  Mo  Mo6  1  5.47499000  0.05937520  1.75519000  1
  Mo  Mo7  1  3.59882000  1.83607000  1.79173000  1
  Mo  Mo8  1  0.00010800  3.66544000  -0.01196930  1
  Mo  Mo9  1  1.80540000  5.46414000  0.06897460  1
  Mo  Mo10  1  1.81376000  3.62767000  1.82583000  1
  Mo  Mo11  1  7.27855000  5.44776000  1.83356000  1
  Mo  Mo12  1  3.60545000  3.69524000  -0.01557010  1
  Mo  Mo13  1  5.45341000  5.49636000  -0.04675830  1
  Mo  Mo14  1  5.43739000  3.58255000  1.82002000  1
  Mo  Mo15  1  3.67864000  5.46319000  1.87687000  1
