# generated using pymatgen
data_Mo
_symmetry_space_group_name_H-M   'P 1'
_cell_length_a   7.27880859
_cell_length_b   7.27880859
_cell_length_c   3.63940430
_cell_angle_alpha   90.00000000
_cell_angle_beta   90.00000000
_cell_angle_gamma   90.00000000
_symmetry_Int_Tables_number   1
_chemical_formula_structural   Mo
_chemical_formula_sum   Mo16
_cell_volume   192.81947745
_cell_formula_units_Z   16
loop_
 _symmetry_equiv_pos_site_id
 _symmetry_equiv_pos_as_xyz
  1  'x, y, z'
loop_
 _atom_site_type_symbol
 _atom_site_label
 _atom_site_symmetry_multiplicity
 _atom_site_fract_x
 _atom_site_fract_y
 _atom_site_fract_z
 _atom_site_occupancy
  Mo  Mo0  1  -0.01745420  0.01151960  3.64485000  1
  Mo  Mo1  1  1.81848000  1.78277000  3.64319000  1
  Mo  Mo2  1  1.79758000  7.26205000  1.78845000  1
  Mo  Mo3  1  -0.04860190  1.85992000  1.77761000  1
  Mo  Mo4  1  3.64690000  0.02859930  -0.00954946  1
  Mo  Mo5  1  5.48795000  1.82163000  3.62301000  1
  Mo  Mo6  1  5.41684000  -0.03843090  1.83001000  1
  Mo  Mo7  1  3.64419000  1.83071000  1.77131000  1
  Mo  Mo8  1  0.04553730  3.63932000  0.01358880  1
  Mo  Mo9  1  1.86578000  5.51440000  -0.00334380  1
  Mo  Mo10  1  1.82942000  3.60999000  1.84050000  1
  Mo  Mo11  1  7.28634000  5.41080000  1.82316000  1
  Mo  Mo12  1  3.60775000  3.66585000  -0.02129880  1
  Mo  Mo13  1  5.46309000  5.47125000  0.06629490  1
  Mo  Mo14  1  5.47417000  3.65673000  1.85120000  1
  Mo  Mo15  1  3.62723000  5.41808000  1.83362000  1
