# generated using pymatgen
data_Mo
_symmetry_space_group_name_H-M   'P 1'
_cell_length_a   7.27880859
_cell_length_b   7.27880859
_cell_length_c   3.63940430
_cell_angle_alpha   90.00000000
_cell_angle_beta   90.00000000
_cell_angle_gamma   90.00000000
_symmetry_Int_Tables_number   1
_chemical_formula_structural   Mo
_chemical_formula_sum   Mo16
_cell_volume   192.81947745
_cell_formula_units_Z   16
loop_
 _symmetry_equiv_pos_site_id
 _symmetry_equiv_pos_as_xyz
  1  'x, y, z'
loop_
 _atom_site_type_symbol
 _atom_site_label
 _atom_site_symmetry_multiplicity
 _atom_site_fract_x
 _atom_site_fract_y
 _atom_site_fract_z
 _atom_site_occupancy
  Mo  Mo0  1  -0.00270423  0.00000583  3.60927000  1
  Mo  Mo1  1  1.83456000  1.82686000  3.67807000  1
  Mo  Mo2  1  1.79136000  7.27895000  1.82004000  1
  Mo  Mo3  1  -0.05139280  1.81059000  1.86323000  1
  Mo  Mo4  1  3.66015000  0.00678165  -0.03389730  1
  Mo  Mo5  1  5.46106000  1.81875000  3.65902000  1
  Mo  Mo6  1  5.43976000  0.00076781  1.79036000  1
  Mo  Mo7  1  3.62860000  1.80388000  1.81980000  1
  Mo  Mo8  1  0.02852230  3.64649000  0.03538410  1
  Mo  Mo9  1  1.84001000  5.44729000  -0.02233300  1
  Mo  Mo10  1  1.83177000  3.65020000  1.83728000  1
  Mo  Mo11  1  7.24010000  5.47433000  1.83215000  1
  Mo  Mo12  1  3.63991000  3.61070000  -0.02876630  1
  Mo  Mo13  1  5.47631000  5.44563000  0.00694920  1
  Mo  Mo14  1  5.48860000  3.65021000  1.86457000  1
  Mo  Mo15  1  3.63859000  5.47377000  1.74146000  1
