# generated using pymatgen
data_Mo
_symmetry_space_group_name_H-M   'P 1'
_cell_length_a   7.27880859
_cell_length_b   7.27880859
_cell_length_c   3.63940430
_cell_angle_alpha   90.00000000
_cell_angle_beta   90.00000000
_cell_angle_gamma   90.00000000
_symmetry_Int_Tables_number   1
_chemical_formula_structural   Mo
_chemical_formula_sum   Mo16
_cell_volume   192.81947745
_cell_formula_units_Z   16
loop_
 _symmetry_equiv_pos_site_id
 _symmetry_equiv_pos_as_xyz
  1  'x, y, z'
loop_
 _atom_site_type_symbol
 _atom_site_label
 _atom_site_symmetry_multiplicity
 _atom_site_fract_x
 _atom_site_fract_y
 _atom_site_fract_z
 _atom_site_occupancy
  Mo  Mo0  1  -0.00336589  -0.00340990  3.62032000  1
  Mo  Mo1  1  1.81019000  1.80747000  3.64824000  1
  Mo  Mo2  1  1.80193000  7.27972000  1.80138000  1
  Mo  Mo3  1  -0.01232190  1.78556000  1.84649000  1
  Mo  Mo4  1  3.65633000  0.00628208  -0.01537270  1
  Mo  Mo5  1  5.45736000  1.87584000  3.66090000  1
  Mo  Mo6  1  5.43830000  -0.01580550  1.81908000  1
  Mo  Mo7  1  3.61351000  1.83075000  1.81928000  1
  Mo  Mo8  1  0.04145930  3.66308000  0.05432680  1
  Mo  Mo9  1  1.82564000  5.50039000  0.00232297  1
  Mo  Mo10  1  1.82972000  3.60618000  1.85892000  1
  Mo  Mo11  1  7.30278000  5.42899000  1.85110000  1
  Mo  Mo12  1  3.64835000  3.65537000  -0.01711720  1
  Mo  Mo13  1  5.45582000  5.44498000  -0.01803120  1
  Mo  Mo14  1  5.45780000  3.63306000  1.80617000  1
  Mo  Mo15  1  3.62169000  5.44673000  1.73457000  1
