# generated using pymatgen
data_Mo
_symmetry_space_group_name_H-M   'P 1'
_cell_length_a   7.27880859
_cell_length_b   7.27880859
_cell_length_c   3.63940430
_cell_angle_alpha   90.00000000
_cell_angle_beta   90.00000000
_cell_angle_gamma   90.00000000
_symmetry_Int_Tables_number   1
_chemical_formula_structural   Mo
_chemical_formula_sum   Mo16
_cell_volume   192.81947745
_cell_formula_units_Z   16
loop_
 _symmetry_equiv_pos_site_id
 _symmetry_equiv_pos_as_xyz
  1  'x, y, z'
loop_
 _atom_site_type_symbol
 _atom_site_label
 _atom_site_symmetry_multiplicity
 _atom_site_fract_x
 _atom_site_fract_y
 _atom_site_fract_z
 _atom_site_occupancy
  Mo  Mo0  1  -0.03814140  0.02360560  3.60807000  1
  Mo  Mo1  1  1.82028000  1.79031000  3.60907000  1
  Mo  Mo2  1  1.81060000  7.23688000  1.81827000  1
  Mo  Mo3  1  0.00767215  1.82208000  1.79875000  1
  Mo  Mo4  1  3.65250000  -0.00782557  0.00522934  1
  Mo  Mo5  1  5.47022000  1.84744000  3.71620000  1
  Mo  Mo6  1  5.44134000  -0.01600950  1.78522000  1
  Mo  Mo7  1  3.59846000  1.80738000  1.83774000  1
  Mo  Mo8  1  0.00149563  3.58003000  0.00741595  1
  Mo  Mo9  1  1.83051000  5.46137000  0.03609870  1
  Mo  Mo10  1  1.83224000  3.70069000  1.82031000  1
  Mo  Mo11  1  7.26456000  5.48133000  1.76045000  1
  Mo  Mo12  1  3.65453000  3.65800000  0.01272540  1
  Mo  Mo13  1  5.49969000  5.43972000  -0.04283360  1
  Mo  Mo14  1  5.44129000  3.64830000  1.85620000  1
  Mo  Mo15  1  3.65796000  5.47190000  1.84370000  1
