# generated using pymatgen
data_Mo
_symmetry_space_group_name_H-M   'P 1'
_cell_length_a   7.27880859
_cell_length_b   7.27880859
_cell_length_c   3.63940430
_cell_angle_alpha   90.00000000
_cell_angle_beta   90.00000000
_cell_angle_gamma   90.00000000
_symmetry_Int_Tables_number   1
_chemical_formula_structural   Mo
_chemical_formula_sum   Mo16
_cell_volume   192.81947745
_cell_formula_units_Z   16
loop_
 _symmetry_equiv_pos_site_id
 _symmetry_equiv_pos_as_xyz
  1  'x, y, z'
loop_
 _atom_site_type_symbol
 _atom_site_label
 _atom_site_symmetry_multiplicity
 _atom_site_fract_x
 _atom_site_fract_y
 _atom_site_fract_z
 _atom_site_occupancy
  Mo  Mo0  1  -0.05439090  -0.04213780  3.61860000  1
  Mo  Mo1  1  1.78825000  1.82030000  3.61189000  1
  Mo  Mo2  1  1.83302000  7.32872000  1.82919000  1
  Mo  Mo3  1  0.00260834  1.79679000  1.86767000  1
  Mo  Mo4  1  3.65980000  -0.03495480  -0.04367170  1
  Mo  Mo5  1  5.43304000  1.85957000  3.56726000  1
  Mo  Mo6  1  5.47748000  0.00556492  1.75838000  1
  Mo  Mo7  1  3.64345000  1.82028000  1.75224000  1
  Mo  Mo8  1  0.03648170  3.64694000  0.05301400  1
  Mo  Mo9  1  1.83485000  5.43064000  0.00263888  1
  Mo  Mo10  1  1.82919000  3.62362000  1.79405000  1
  Mo  Mo11  1  7.32486000  5.46945000  1.86108000  1
  Mo  Mo12  1  3.61292000  3.63697000  0.01947540  1
  Mo  Mo13  1  5.43571000  5.41003000  0.04690550  1
  Mo  Mo14  1  5.46742000  3.66503000  1.86092000  1
  Mo  Mo15  1  3.62050000  5.50838000  1.87294000  1
