# generated using pymatgen
data_Mo
_symmetry_space_group_name_H-M   'P 1'
_cell_length_a   7.27880859
_cell_length_b   7.27880859
_cell_length_c   3.63940430
_cell_angle_alpha   90.00000000
_cell_angle_beta   90.00000000
_cell_angle_gamma   90.00000000
_symmetry_Int_Tables_number   1
_chemical_formula_structural   Mo
_chemical_formula_sum   Mo16
_cell_volume   192.81947745
_cell_formula_units_Z   16
loop_
 _symmetry_equiv_pos_site_id
 _symmetry_equiv_pos_as_xyz
  1  'x, y, z'
loop_
 _atom_site_type_symbol
 _atom_site_label
 _atom_site_symmetry_multiplicity
 _atom_site_fract_x
 _atom_site_fract_y
 _atom_site_fract_z
 _atom_site_occupancy
  Mo  Mo0  1  -0.01134770  0.00036659  3.57452000  1
  Mo  Mo1  1  1.81293000  1.80805000  3.71284000  1
  Mo  Mo2  1  1.82786000  7.26327000  1.82732000  1
  Mo  Mo3  1  -0.02232210  1.84654000  1.81270000  1
  Mo  Mo4  1  3.64126000  0.02959440  0.01628370  1
  Mo  Mo5  1  5.44982000  1.86510000  3.64312000  1
  Mo  Mo6  1  5.45722000  0.01068150  1.78397000  1
  Mo  Mo7  1  3.63498000  1.76416000  1.83325000  1
  Mo  Mo8  1  0.03693140  3.61993000  0.00301909  1
  Mo  Mo9  1  1.82610000  5.45300000  -0.04087630  1
  Mo  Mo10  1  1.81969000  3.66235000  1.79635000  1
  Mo  Mo11  1  7.24755000  5.49658000  1.81574000  1
  Mo  Mo12  1  3.63268000  3.59348000  0.02386440  1
  Mo  Mo13  1  5.48914000  5.38344000  -0.00173453  1
  Mo  Mo14  1  5.42362000  3.66007000  1.82630000  1
  Mo  Mo15  1  3.67909000  5.48858000  1.84593000  1
