# generated using pymatgen
data_Mo
_symmetry_space_group_name_H-M   'P 1'
_cell_length_a   7.27880859
_cell_length_b   7.27880859
_cell_length_c   3.63940430
_cell_angle_alpha   90.00000000
_cell_angle_beta   90.00000000
_cell_angle_gamma   90.00000000
_symmetry_Int_Tables_number   1
_chemical_formula_structural   Mo
_chemical_formula_sum   Mo16
_cell_volume   192.81947745
_cell_formula_units_Z   16
loop_
 _symmetry_equiv_pos_site_id
 _symmetry_equiv_pos_as_xyz
  1  'x, y, z'
loop_
 _atom_site_type_symbol
 _atom_site_label
 _atom_site_symmetry_multiplicity
 _atom_site_fract_x
 _atom_site_fract_y
 _atom_site_fract_z
 _atom_site_occupancy
  Mo  Mo0  1  -0.02911420  -0.02848470  3.65092000  1
  Mo  Mo1  1  1.79140000  1.80332000  3.61347000  1
  Mo  Mo2  1  1.80210000  7.30333000  1.77874000  1
  Mo  Mo3  1  -0.02543730  1.80231000  1.78961000  1
  Mo  Mo4  1  3.67369000  0.00977659  -0.07394440  1
  Mo  Mo5  1  5.47394000  1.85609000  3.64417000  1
  Mo  Mo6  1  5.42417000  0.00106956  1.80284000  1
  Mo  Mo7  1  3.66024000  1.79428000  1.79544000  1
  Mo  Mo8  1  0.00690811  3.63385000  0.02857630  1
  Mo  Mo9  1  1.85214000  5.46525000  0.04944000  1
  Mo  Mo10  1  1.80185000  3.60160000  1.87464000  1
  Mo  Mo11  1  7.30770000  5.48767000  1.87391000  1
  Mo  Mo12  1  3.63641000  3.66786000  -0.01065440  1
  Mo  Mo13  1  5.45801000  5.41583000  -0.00921298  1
  Mo  Mo14  1  5.47780000  3.63744000  1.85063000  1
  Mo  Mo15  1  3.63340000  5.49400000  1.81401000  1
