# generated using pymatgen
data_Mo
_symmetry_space_group_name_H-M   'P 1'
_cell_length_a   7.27880859
_cell_length_b   7.27880859
_cell_length_c   3.63940430
_cell_angle_alpha   90.00000000
_cell_angle_beta   90.00000000
_cell_angle_gamma   90.00000000
_symmetry_Int_Tables_number   1
_chemical_formula_structural   Mo
_chemical_formula_sum   Mo16
_cell_volume   192.81947745
_cell_formula_units_Z   16
loop_
 _symmetry_equiv_pos_site_id
 _symmetry_equiv_pos_as_xyz
  1  'x, y, z'
loop_
 _atom_site_type_symbol
 _atom_site_label
 _atom_site_symmetry_multiplicity
 _atom_site_fract_x
 _atom_site_fract_y
 _atom_site_fract_z
 _atom_site_occupancy
  Mo  Mo0  1  -0.00916104  -0.06427720  3.61808000  1
  Mo  Mo1  1  1.82600000  1.79283000  3.62106000  1
  Mo  Mo2  1  1.84488000  7.35018000  1.78519000  1
  Mo  Mo3  1  -0.00462897  1.81129000  1.81290000  1
  Mo  Mo4  1  3.64266000  -0.03644150  -0.02078770  1
  Mo  Mo5  1  5.43986000  1.84492000  3.63997000  1
  Mo  Mo6  1  5.51393000  0.01439500  1.80675000  1
  Mo  Mo7  1  3.66954000  1.83607000  1.85767000  1
  Mo  Mo8  1  0.00090594  3.68112000  0.02684640  1
  Mo  Mo9  1  1.82590000  5.46682000  0.04298020  1
  Mo  Mo10  1  1.81926000  3.60917000  1.86398000  1
  Mo  Mo11  1  7.30637000  5.47071000  1.87380000  1
  Mo  Mo12  1  3.58945000  3.62824000  0.03214760  1
  Mo  Mo13  1  5.43449000  5.41686000  -0.04661420  1
  Mo  Mo14  1  5.45400000  3.65097000  1.76461000  1
  Mo  Mo15  1  3.59174000  5.47232000  1.79402000  1
