# generated using pymatgen
data_Mo
_symmetry_space_group_name_H-M   'P 1'
_cell_length_a   7.27808089
_cell_length_b   7.27808089
_cell_length_c   3.63904047
_cell_angle_alpha   90.00000000
_cell_angle_beta   90.00000000
_cell_angle_gamma   90.00000000
_symmetry_Int_Tables_number   1
_chemical_formula_structural   Mo
_chemical_formula_sum   Mo16
_cell_volume   192.76165285
_cell_formula_units_Z   16
loop_
 _symmetry_equiv_pos_site_id
 _symmetry_equiv_pos_as_xyz
  1  'x, y, z'
loop_
 _atom_site_type_symbol
 _atom_site_label
 _atom_site_symmetry_multiplicity
 _atom_site_fract_x
 _atom_site_fract_y
 _atom_site_fract_z
 _atom_site_occupancy
  Mo  Mo0  1  -0.00200227  7.28403000  -0.01096460  1
  Mo  Mo1  1  1.81698000  1.81173000  -0.01139420  1
  Mo  Mo2  1  1.82646000  7.27732000  1.81720000  1
  Mo  Mo3  1  7.26943000  1.81976000  1.80810000  1
  Mo  Mo4  1  3.62859000  7.27883000  3.63695000  1
  Mo  Mo5  1  5.44993000  1.81633000  -0.00093763  1
  Mo  Mo6  1  5.46958000  0.00028669  1.82822000  1
  Mo  Mo7  1  3.63279000  1.82334000  1.82559000  1
  Mo  Mo8  1  7.29197000  3.64347000  3.63951000  1
  Mo  Mo9  1  1.82990000  5.45307000  3.64837000  1
  Mo  Mo10  1  1.80290000  3.62434000  1.82252000  1
  Mo  Mo11  1  7.28404000  5.45995000  1.82655000  1
  Mo  Mo12  1  3.64983000  3.65404000  0.00173417  1
  Mo  Mo13  1  5.45368000  5.46271000  3.64767000  1
  Mo  Mo14  1  5.45643000  3.63294000  1.80808000  1
  Mo  Mo15  1  3.64157000  5.45993000  1.82481000  1
