# generated using pymatgen
data_Mo
_symmetry_space_group_name_H-M   'P 1'
_cell_length_a   7.27880859
_cell_length_b   7.27880859
_cell_length_c   3.63940430
_cell_angle_alpha   90.00000000
_cell_angle_beta   90.00000000
_cell_angle_gamma   90.00000000
_symmetry_Int_Tables_number   1
_chemical_formula_structural   Mo
_chemical_formula_sum   Mo16
_cell_volume   192.81947745
_cell_formula_units_Z   16
loop_
 _symmetry_equiv_pos_site_id
 _symmetry_equiv_pos_as_xyz
  1  'x, y, z'
loop_
 _atom_site_type_symbol
 _atom_site_label
 _atom_site_symmetry_multiplicity
 _atom_site_fract_x
 _atom_site_fract_y
 _atom_site_fract_z
 _atom_site_occupancy
  Mo  Mo0  1  -0.00931988  0.05017360  3.61012000  1
  Mo  Mo1  1  1.83474000  1.84793000  3.64646000  1
  Mo  Mo2  1  1.81654000  7.22419000  1.82941000  1
  Mo  Mo3  1  0.03471050  1.80249000  1.86969000  1
  Mo  Mo4  1  3.66004000  0.02688780  -0.00457255  1
  Mo  Mo5  1  5.43931000  1.82515000  3.68842000  1
  Mo  Mo6  1  5.45299000  -0.00796222  1.86470000  1
  Mo  Mo7  1  3.58790000  1.79412000  1.85014000  1
  Mo  Mo8  1  0.01370150  3.61855000  0.00761489  1
  Mo  Mo9  1  1.81210000  5.50194000  -0.05694090  1
  Mo  Mo10  1  1.84733000  3.69347000  1.80702000  1
  Mo  Mo11  1  7.23686000  5.45419000  1.78311000  1
  Mo  Mo12  1  3.62446000  3.61066000  0.00305856  1
  Mo  Mo13  1  5.48839000  5.42574000  -0.03994830  1
  Mo  Mo14  1  5.47608000  3.61952000  1.85074000  1
  Mo  Mo15  1  3.62936000  5.45815000  1.76358000  1
