# generated using pymatgen
data_Mo
_symmetry_space_group_name_H-M   'P 1'
_cell_length_a   7.27880859
_cell_length_b   7.27880859
_cell_length_c   3.63940430
_cell_angle_alpha   90.00000000
_cell_angle_beta   90.00000000
_cell_angle_gamma   90.00000000
_symmetry_Int_Tables_number   1
_chemical_formula_structural   Mo
_chemical_formula_sum   Mo16
_cell_volume   192.81947745
_cell_formula_units_Z   16
loop_
 _symmetry_equiv_pos_site_id
 _symmetry_equiv_pos_as_xyz
  1  'x, y, z'
loop_
 _atom_site_type_symbol
 _atom_site_label
 _atom_site_symmetry_multiplicity
 _atom_site_fract_x
 _atom_site_fract_y
 _atom_site_fract_z
 _atom_site_occupancy
  Mo  Mo0  1  -0.01167850  0.01121260  3.59835000  1
  Mo  Mo1  1  1.82633000  1.78490000  3.61955000  1
  Mo  Mo2  1  1.80699000  7.23912000  1.82318000  1
  Mo  Mo3  1  0.00474971  1.80020000  1.82898000  1
  Mo  Mo4  1  3.64209000  -0.04334280  -0.01230020  1
  Mo  Mo5  1  5.42079000  1.84413000  3.59632000  1
  Mo  Mo6  1  5.48796000  0.03772000  1.77912000  1
  Mo  Mo7  1  3.63185000  1.82877000  1.81027000  1
  Mo  Mo8  1  0.00889406  3.64597000  -0.01378670  1
  Mo  Mo9  1  1.80700000  5.49007000  0.02399140  1
  Mo  Mo10  1  1.83602000  3.63495000  1.83874000  1
  Mo  Mo11  1  7.26409000  5.45189000  1.82687000  1
  Mo  Mo12  1  3.62474000  3.67262000  0.06062230  1
  Mo  Mo13  1  5.44976000  5.45103000  -0.01532870  1
  Mo  Mo14  1  5.47137000  3.63164000  1.83881000  1
  Mo  Mo15  1  3.67422000  5.46431000  1.86921000  1
