# generated using pymatgen
data_Mo
_symmetry_space_group_name_H-M   'P 1'
_cell_length_a   7.27880859
_cell_length_b   7.27880859
_cell_length_c   3.63940430
_cell_angle_alpha   90.00000000
_cell_angle_beta   90.00000000
_cell_angle_gamma   90.00000000
_symmetry_Int_Tables_number   1
_chemical_formula_structural   Mo
_chemical_formula_sum   Mo16
_cell_volume   192.81947745
_cell_formula_units_Z   16
loop_
 _symmetry_equiv_pos_site_id
 _symmetry_equiv_pos_as_xyz
  1  'x, y, z'
loop_
 _atom_site_type_symbol
 _atom_site_label
 _atom_site_symmetry_multiplicity
 _atom_site_fract_x
 _atom_site_fract_y
 _atom_site_fract_z
 _atom_site_occupancy
  Mo  Mo0  1  -0.01100290  -0.02311830  3.63600000  1
  Mo  Mo1  1  1.80821000  1.83438000  3.68330000  1
  Mo  Mo2  1  1.83303000  7.24894000  1.83871000  1
  Mo  Mo3  1  0.00927161  1.81768000  1.82708000  1
  Mo  Mo4  1  3.63466000  0.03225760  0.01342040  1
  Mo  Mo5  1  5.46666000  1.85908000  3.62529000  1
  Mo  Mo6  1  5.47552000  0.01117070  1.81842000  1
  Mo  Mo7  1  3.64864000  1.78183000  1.78344000  1
  Mo  Mo8  1  0.03797760  3.61080000  0.04305310  1
  Mo  Mo9  1  1.81266000  5.44514000  -0.03558610  1
  Mo  Mo10  1  1.81551000  3.67505000  1.76470000  1
  Mo  Mo11  1  7.26145000  5.46818000  1.88773000  1
  Mo  Mo12  1  3.62828000  3.65549000  -0.05795690  1
  Mo  Mo13  1  5.44255000  5.39461000  0.03319280  1
  Mo  Mo14  1  5.43025000  3.64087000  1.80318000  1
  Mo  Mo15  1  3.65153000  5.49285000  1.80862000  1
