# generated using pymatgen
data_Mo
_symmetry_space_group_name_H-M   'P 1'
_cell_length_a   7.27880859
_cell_length_b   7.27880859
_cell_length_c   3.63940430
_cell_angle_alpha   90.00000000
_cell_angle_beta   90.00000000
_cell_angle_gamma   90.00000000
_symmetry_Int_Tables_number   1
_chemical_formula_structural   Mo
_chemical_formula_sum   Mo16
_cell_volume   192.81947745
_cell_formula_units_Z   16
loop_
 _symmetry_equiv_pos_site_id
 _symmetry_equiv_pos_as_xyz
  1  'x, y, z'
loop_
 _atom_site_type_symbol
 _atom_site_label
 _atom_site_symmetry_multiplicity
 _atom_site_fract_x
 _atom_site_fract_y
 _atom_site_fract_z
 _atom_site_occupancy
  Mo  Mo0  1  -0.00558765  -0.00231684  3.65011000  1
  Mo  Mo1  1  1.83383000  1.79084000  3.63088000  1
  Mo  Mo2  1  1.83596000  7.30062000  1.79490000  1
  Mo  Mo3  1  -0.00297248  1.84856000  1.82195000  1
  Mo  Mo4  1  3.65290000  -0.05357130  -0.01888770  1
  Mo  Mo5  1  5.44615000  1.82065000  3.58367000  1
  Mo  Mo6  1  5.48138000  0.00724073  1.83442000  1
  Mo  Mo7  1  3.65855000  1.83969000  1.81250000  1
  Mo  Mo8  1  0.01633100  3.61972000  0.00556517  1
  Mo  Mo9  1  1.79373000  5.47699000  -0.01006530  1
  Mo  Mo10  1  1.79920000  3.64167000  1.83075000  1
  Mo  Mo11  1  7.29863000  5.45059000  1.89172000  1
  Mo  Mo12  1  3.62447000  3.66662000  -0.01143510  1
  Mo  Mo13  1  5.42631000  5.41307000  0.04578000  1
  Mo  Mo14  1  5.42896000  3.64924000  1.79169000  1
  Mo  Mo15  1  3.65735000  5.47558000  1.81904000  1
