# generated using pymatgen
data_Mo
_symmetry_space_group_name_H-M   'P 1'
_cell_length_a   7.27880859
_cell_length_b   7.27880859
_cell_length_c   3.63940430
_cell_angle_alpha   90.00000000
_cell_angle_beta   90.00000000
_cell_angle_gamma   90.00000000
_symmetry_Int_Tables_number   1
_chemical_formula_structural   Mo
_chemical_formula_sum   Mo16
_cell_volume   192.81947745
_cell_formula_units_Z   16
loop_
 _symmetry_equiv_pos_site_id
 _symmetry_equiv_pos_as_xyz
  1  'x, y, z'
loop_
 _atom_site_type_symbol
 _atom_site_label
 _atom_site_symmetry_multiplicity
 _atom_site_fract_x
 _atom_site_fract_y
 _atom_site_fract_z
 _atom_site_occupancy
  Mo  Mo0  1  -0.00506246  -0.00741333  3.64853000  1
  Mo  Mo1  1  1.85100000  1.77311000  3.68717000  1
  Mo  Mo2  1  1.80712000  7.25411000  1.81442000  1
  Mo  Mo3  1  0.02018580  1.82292000  1.75132000  1
  Mo  Mo4  1  3.66900000  -0.00768395  -0.02960160  1
  Mo  Mo5  1  5.45228000  1.84769000  3.55368000  1
  Mo  Mo6  1  5.45243000  0.02443370  1.79310000  1
  Mo  Mo7  1  3.62972000  1.80452000  1.78501000  1
  Mo  Mo8  1  0.01736230  3.62908000  0.01164870  1
  Mo  Mo9  1  1.79401000  5.46531000  0.01730820  1
  Mo  Mo10  1  1.81119000  3.65198000  1.87602000  1
  Mo  Mo11  1  7.25687000  5.47394000  1.83630000  1
  Mo  Mo12  1  3.62598000  3.66338000  0.01494400  1
  Mo  Mo13  1  5.49784000  5.46706000  0.07102690  1
  Mo  Mo14  1  5.42253000  3.62934000  1.80254000  1
  Mo  Mo15  1  3.64275000  5.45342000  1.83916000  1
