# generated using pymatgen
data_Mo
_symmetry_space_group_name_H-M   'P 1'
_cell_length_a   7.27880859
_cell_length_b   7.27880859
_cell_length_c   3.63940430
_cell_angle_alpha   90.00000000
_cell_angle_beta   90.00000000
_cell_angle_gamma   90.00000000
_symmetry_Int_Tables_number   1
_chemical_formula_structural   Mo
_chemical_formula_sum   Mo16
_cell_volume   192.81947745
_cell_formula_units_Z   16
loop_
 _symmetry_equiv_pos_site_id
 _symmetry_equiv_pos_as_xyz
  1  'x, y, z'
loop_
 _atom_site_type_symbol
 _atom_site_label
 _atom_site_symmetry_multiplicity
 _atom_site_fract_x
 _atom_site_fract_y
 _atom_site_fract_z
 _atom_site_occupancy
  Mo  Mo0  1  -0.04046100  0.04964730  3.61858000  1
  Mo  Mo1  1  1.80509000  1.79517000  3.67901000  1
  Mo  Mo2  1  1.83365000  7.24265000  1.76755000  1
  Mo  Mo3  1  0.00720686  1.81508000  1.83121000  1
  Mo  Mo4  1  3.62094000  0.02160570  0.03585800  1
  Mo  Mo5  1  5.44755000  1.83405000  3.65506000  1
  Mo  Mo6  1  5.46227000  -0.00264677  1.82493000  1
  Mo  Mo7  1  3.61234000  1.83771000  1.88869000  1
  Mo  Mo8  1  0.02435070  3.57910000  -0.00800404  1
  Mo  Mo9  1  1.77766000  5.46295000  -0.04330270  1
  Mo  Mo10  1  1.86685000  3.68317000  1.80944000  1
  Mo  Mo11  1  7.31368000  5.47427000  1.80179000  1
  Mo  Mo12  1  3.63612000  3.58653000  0.03149620  1
  Mo  Mo13  1  5.48299000  5.41141000  0.00087949  1
  Mo  Mo14  1  5.44672000  3.67511000  1.78940000  1
  Mo  Mo15  1  3.64824000  5.47939000  1.79001000  1
