# generated using pymatgen
data_Mo
_symmetry_space_group_name_H-M   'P 1'
_cell_length_a   7.27808089
_cell_length_b   7.27808089
_cell_length_c   3.63904047
_cell_angle_alpha   90.00000000
_cell_angle_beta   90.00000000
_cell_angle_gamma   90.00000000
_symmetry_Int_Tables_number   1
_chemical_formula_structural   Mo
_chemical_formula_sum   Mo16
_cell_volume   192.76165285
_cell_formula_units_Z   16
loop_
 _symmetry_equiv_pos_site_id
 _symmetry_equiv_pos_as_xyz
  1  'x, y, z'
loop_
 _atom_site_type_symbol
 _atom_site_label
 _atom_site_symmetry_multiplicity
 _atom_site_fract_x
 _atom_site_fract_y
 _atom_site_fract_z
 _atom_site_occupancy
  Mo  Mo0  1  0.00276135  7.27958000  0.00704317  1
  Mo  Mo1  1  1.82134000  1.81500000  0.00582456  1
  Mo  Mo2  1  1.80395000  7.27207000  1.82066000  1
  Mo  Mo3  1  7.27024000  1.82520000  1.82021000  1
  Mo  Mo4  1  3.64525000  7.27705000  3.64380000  1
  Mo  Mo5  1  5.45920000  1.82105000  0.00350332  1
  Mo  Mo6  1  5.45098000  0.01032870  1.82473000  1
  Mo  Mo7  1  3.64938000  1.81747000  1.81777000  1
  Mo  Mo8  1  7.26984000  3.62488000  3.64312000  1
  Mo  Mo9  1  1.81462000  5.45757000  3.63133000  1
  Mo  Mo10  1  1.83353000  3.64512000  1.82111000  1
  Mo  Mo11  1  7.27594000  5.46182000  1.82950000  1
  Mo  Mo12  1  3.63517000  3.62888000  -0.01672060  1
  Mo  Mo13  1  5.46072000  5.46040000  3.62956000  1
  Mo  Mo14  1  5.46857000  3.64389000  1.82221000  1
  Mo  Mo15  1  3.64060000  5.46176000  1.80836000  1
