# generated using pymatgen
data_Mo
_symmetry_space_group_name_H-M   'P 1'
_cell_length_a   7.27880859
_cell_length_b   7.27880859
_cell_length_c   3.63940430
_cell_angle_alpha   90.00000000
_cell_angle_beta   90.00000000
_cell_angle_gamma   90.00000000
_symmetry_Int_Tables_number   1
_chemical_formula_structural   Mo
_chemical_formula_sum   Mo16
_cell_volume   192.81947745
_cell_formula_units_Z   16
loop_
 _symmetry_equiv_pos_site_id
 _symmetry_equiv_pos_as_xyz
  1  'x, y, z'
loop_
 _atom_site_type_symbol
 _atom_site_label
 _atom_site_symmetry_multiplicity
 _atom_site_fract_x
 _atom_site_fract_y
 _atom_site_fract_z
 _atom_site_occupancy
  Mo  Mo0  1  0.01219510  0.00241817  3.67288000  1
  Mo  Mo1  1  1.82130000  1.81657000  3.64355000  1
  Mo  Mo2  1  1.79419000  7.28423000  1.78141000  1
  Mo  Mo3  1  0.01476220  1.85094000  1.88164000  1
  Mo  Mo4  1  3.64502000  -0.03670860  -0.04852960  1
  Mo  Mo5  1  5.47167000  1.74516000  3.68743000  1
  Mo  Mo6  1  5.45062000  0.02573870  1.83038000  1
  Mo  Mo7  1  3.60000000  1.86912000  1.79400000  1
  Mo  Mo8  1  -0.04320420  3.66384000  0.01896970  1
  Mo  Mo9  1  1.84473000  5.44985000  0.01668610  1
  Mo  Mo10  1  1.81702000  3.64817000  1.84097000  1
  Mo  Mo11  1  7.27648000  5.42317000  1.78918000  1
  Mo  Mo12  1  3.68345000  3.63456000  -0.02054390  1
  Mo  Mo13  1  5.47830000  5.52644000  -0.02593740  1
  Mo  Mo14  1  5.42054000  3.61285000  1.81333000  1
  Mo  Mo15  1  3.65814000  5.42884000  1.79719000  1
