# generated using pymatgen
data_Mo
_symmetry_space_group_name_H-M   'P 1'
_cell_length_a   7.27880859
_cell_length_b   7.27880859
_cell_length_c   3.63940430
_cell_angle_alpha   90.00000000
_cell_angle_beta   90.00000000
_cell_angle_gamma   90.00000000
_symmetry_Int_Tables_number   1
_chemical_formula_structural   Mo
_chemical_formula_sum   Mo16
_cell_volume   192.81947745
_cell_formula_units_Z   16
loop_
 _symmetry_equiv_pos_site_id
 _symmetry_equiv_pos_as_xyz
  1  'x, y, z'
loop_
 _atom_site_type_symbol
 _atom_site_label
 _atom_site_symmetry_multiplicity
 _atom_site_fract_x
 _atom_site_fract_y
 _atom_site_fract_z
 _atom_site_occupancy
  Mo  Mo0  1  -0.04218990  -0.04353550  3.65367000  1
  Mo  Mo1  1  1.85067000  1.78599000  3.60456000  1
  Mo  Mo2  1  1.79458000  7.32036000  1.83658000  1
  Mo  Mo3  1  -0.03845640  1.83926000  1.87328000  1
  Mo  Mo4  1  3.63469000  -0.05371090  0.04312940  1
  Mo  Mo5  1  5.41485000  1.81466000  3.70942000  1
  Mo  Mo6  1  5.48403000  0.02197400  1.84787000  1
  Mo  Mo7  1  3.65129000  1.84876000  1.84688000  1
  Mo  Mo8  1  0.03713850  3.66252000  -0.03416990  1
  Mo  Mo9  1  1.80516000  5.48484000  -0.02019760  1
  Mo  Mo10  1  1.82247000  3.61410000  1.74543000  1
  Mo  Mo11  1  7.31017000  5.45654000  1.78112000  1
  Mo  Mo12  1  3.64151000  3.67574000  -0.02886970  1
  Mo  Mo13  1  5.46158000  5.42689000  -0.03821250  1
  Mo  Mo14  1  5.45728000  3.62991000  1.82890000  1
  Mo  Mo15  1  3.66040000  5.46089000  1.82320000  1
