# generated using pymatgen
data_Mo
_symmetry_space_group_name_H-M   'P 1'
_cell_length_a   7.27880859
_cell_length_b   7.27880859
_cell_length_c   3.63940430
_cell_angle_alpha   90.00000000
_cell_angle_beta   90.00000000
_cell_angle_gamma   90.00000000
_symmetry_Int_Tables_number   1
_chemical_formula_structural   Mo
_chemical_formula_sum   Mo16
_cell_volume   192.81947745
_cell_formula_units_Z   16
loop_
 _symmetry_equiv_pos_site_id
 _symmetry_equiv_pos_as_xyz
  1  'x, y, z'
loop_
 _atom_site_type_symbol
 _atom_site_label
 _atom_site_symmetry_multiplicity
 _atom_site_fract_x
 _atom_site_fract_y
 _atom_site_fract_z
 _atom_site_occupancy
  Mo  Mo0  1  -0.02275470  0.02900700  3.60391000  1
  Mo  Mo1  1  1.81493000  1.84635000  3.61815000  1
  Mo  Mo2  1  1.82027000  7.23014000  1.82459000  1
  Mo  Mo3  1  0.02918750  1.81085000  1.79504000  1
  Mo  Mo4  1  3.67081000  0.00969933  0.00071870  1
  Mo  Mo5  1  5.43795000  1.83319000  3.61274000  1
  Mo  Mo6  1  5.44665000  0.03064050  1.84017000  1
  Mo  Mo7  1  3.58200000  1.81244000  1.81270000  1
  Mo  Mo8  1  0.00671102  3.62988000  -0.02537390  1
  Mo  Mo9  1  1.81764000  5.48613000  0.00310245  1
  Mo  Mo10  1  1.84248000  3.64180000  1.82853000  1
  Mo  Mo11  1  7.24465000  5.42376000  1.81328000  1
  Mo  Mo12  1  3.62902000  3.64267000  0.05293830  1
  Mo  Mo13  1  5.48822000  5.45893000  0.01381860  1
  Mo  Mo14  1  5.48583000  3.59728000  1.83341000  1
  Mo  Mo15  1  3.65159000  5.46242000  1.84487000  1
