# generated using pymatgen
data_Mo
_symmetry_space_group_name_H-M   'P 1'
_cell_length_a   7.27880859
_cell_length_b   7.27880859
_cell_length_c   3.63940430
_cell_angle_alpha   90.00000000
_cell_angle_beta   90.00000000
_cell_angle_gamma   90.00000000
_symmetry_Int_Tables_number   1
_chemical_formula_structural   Mo
_chemical_formula_sum   Mo16
_cell_volume   192.81947745
_cell_formula_units_Z   16
loop_
 _symmetry_equiv_pos_site_id
 _symmetry_equiv_pos_as_xyz
  1  'x, y, z'
loop_
 _atom_site_type_symbol
 _atom_site_label
 _atom_site_symmetry_multiplicity
 _atom_site_fract_x
 _atom_site_fract_y
 _atom_site_fract_z
 _atom_site_occupancy
  Mo  Mo0  1  0.02232390  -0.00095756  3.67074000  1
  Mo  Mo1  1  1.81160000  1.80235000  3.65969000  1
  Mo  Mo2  1  1.79740000  7.26700000  1.86596000  1
  Mo  Mo3  1  0.01544360  1.85083000  1.78999000  1
  Mo  Mo4  1  3.59818000  -0.03328410  0.02328970  1
  Mo  Mo5  1  5.46644000  1.76806000  3.59974000  1
  Mo  Mo6  1  5.42156000  0.02468030  1.82932000  1
  Mo  Mo7  1  3.61428000  1.84735000  1.83471000  1
  Mo  Mo8  1  -0.02704600  3.66517000  -0.00474797  1
  Mo  Mo9  1  1.83633000  5.47655000  0.01195860  1
  Mo  Mo10  1  1.81571000  3.64671000  1.79080000  1
  Mo  Mo11  1  7.29169000  5.40457000  1.86455000  1
  Mo  Mo12  1  3.70576000  3.65213000  -0.07136260  1
  Mo  Mo13  1  5.47172000  5.52029000  0.02186000  1
  Mo  Mo14  1  5.44315000  3.60449000  1.79111000  1
  Mo  Mo15  1  3.66066000  5.44927000  1.79499000  1
