# generated using pymatgen
data_Mo
_symmetry_space_group_name_H-M   'P 1'
_cell_length_a   7.27880859
_cell_length_b   7.27880859
_cell_length_c   3.63940430
_cell_angle_alpha   90.00000000
_cell_angle_beta   90.00000000
_cell_angle_gamma   90.00000000
_symmetry_Int_Tables_number   1
_chemical_formula_structural   Mo
_chemical_formula_sum   Mo16
_cell_volume   192.81947745
_cell_formula_units_Z   16
loop_
 _symmetry_equiv_pos_site_id
 _symmetry_equiv_pos_as_xyz
  1  'x, y, z'
loop_
 _atom_site_type_symbol
 _atom_site_label
 _atom_site_symmetry_multiplicity
 _atom_site_fract_x
 _atom_site_fract_y
 _atom_site_fract_z
 _atom_site_occupancy
  Mo  Mo0  1  0.02466390  0.03210420  3.63918000  1
  Mo  Mo1  1  1.82226000  1.80781000  3.69716000  1
  Mo  Mo2  1  1.81533000  7.25420000  1.83074000  1
  Mo  Mo3  1  -0.01334610  1.82239000  1.80072000  1
  Mo  Mo4  1  3.67025000  0.05941230  0.01085450  1
  Mo  Mo5  1  5.49696000  1.85420000  3.61867000  1
  Mo  Mo6  1  5.43341000  -0.06918060  1.83705000  1
  Mo  Mo7  1  3.65992000  1.79088000  1.84913000  1
  Mo  Mo8  1  0.01399520  3.63877000  -0.02931070  1
  Mo  Mo9  1  1.81249000  5.49023000  -0.03312810  1
  Mo  Mo10  1  1.80817000  3.62797000  1.86456000  1
  Mo  Mo11  1  7.32317000  5.46282000  1.77988000  1
  Mo  Mo12  1  3.62851000  3.61472000  -0.01075300  1
  Mo  Mo13  1  5.44331000  5.43282000  -0.00521049  1
  Mo  Mo14  1  5.41904000  3.68205000  1.82121000  1
  Mo  Mo15  1  3.58706000  5.44401000  1.80185000  1
