# generated using pymatgen
data_Mo
_symmetry_space_group_name_H-M   'P 1'
_cell_length_a   7.27880859
_cell_length_b   7.27880859
_cell_length_c   3.63940430
_cell_angle_alpha   90.00000000
_cell_angle_beta   90.00000000
_cell_angle_gamma   90.00000000
_symmetry_Int_Tables_number   1
_chemical_formula_structural   Mo
_chemical_formula_sum   Mo16
_cell_volume   192.81947745
_cell_formula_units_Z   16
loop_
 _symmetry_equiv_pos_site_id
 _symmetry_equiv_pos_as_xyz
  1  'x, y, z'
loop_
 _atom_site_type_symbol
 _atom_site_label
 _atom_site_symmetry_multiplicity
 _atom_site_fract_x
 _atom_site_fract_y
 _atom_site_fract_z
 _atom_site_occupancy
  Mo  Mo0  1  -0.00911672  0.05601250  3.59714000  1
  Mo  Mo1  1  1.78913000  1.79780000  3.60667000  1
  Mo  Mo2  1  1.81854000  7.26969000  1.81849000  1
  Mo  Mo3  1  0.00528383  1.82342000  1.79056000  1
  Mo  Mo4  1  3.69360000  0.01516410  -0.01696040  1
  Mo  Mo5  1  5.46367000  1.84613000  3.65001000  1
  Mo  Mo6  1  5.44070000  -0.05481770  1.79544000  1
  Mo  Mo7  1  3.69101000  1.79454000  1.84169000  1
  Mo  Mo8  1  0.00167395  3.59797000  0.02407650  1
  Mo  Mo9  1  1.79956000  5.47770000  0.05800410  1
  Mo  Mo10  1  1.81909000  3.64483000  1.86535000  1
  Mo  Mo11  1  7.28241000  5.44707000  1.85396000  1
  Mo  Mo12  1  3.62340000  3.61686000  0.01282860  1
  Mo  Mo13  1  5.46055000  5.45061000  -0.05421280  1
  Mo  Mo14  1  5.45182000  3.69490000  1.81159000  1
  Mo  Mo15  1  3.61386000  5.46731000  1.81796000  1
