# generated using pymatgen
data_Mo
_symmetry_space_group_name_H-M   'P 1'
_cell_length_a   7.27880859
_cell_length_b   7.27880859
_cell_length_c   3.63940430
_cell_angle_alpha   90.00000000
_cell_angle_beta   90.00000000
_cell_angle_gamma   90.00000000
_symmetry_Int_Tables_number   1
_chemical_formula_structural   Mo
_chemical_formula_sum   Mo16
_cell_volume   192.81947745
_cell_formula_units_Z   16
loop_
 _symmetry_equiv_pos_site_id
 _symmetry_equiv_pos_as_xyz
  1  'x, y, z'
loop_
 _atom_site_type_symbol
 _atom_site_label
 _atom_site_symmetry_multiplicity
 _atom_site_fract_x
 _atom_site_fract_y
 _atom_site_fract_z
 _atom_site_occupancy
  Mo  Mo0  1  -0.01468700  -0.01443310  3.61604000  1
  Mo  Mo1  1  1.84527000  1.79658000  3.60813000  1
  Mo  Mo2  1  1.82867000  7.32210000  1.82260000  1
  Mo  Mo3  1  -0.05095340  1.82348000  1.81059000  1
  Mo  Mo4  1  3.65745000  -0.02303650  -0.02407980  1
  Mo  Mo5  1  5.49334000  1.84066000  3.62846000  1
  Mo  Mo6  1  5.50210000  0.00356129  1.74490000  1
  Mo  Mo7  1  3.66571000  1.80551000  1.76890000  1
  Mo  Mo8  1  -0.01042690  3.65356000  0.05018800  1
  Mo  Mo9  1  1.82133000  5.48396000  0.07889090  1
  Mo  Mo10  1  1.79016000  3.58582000  1.85619000  1
  Mo  Mo11  1  7.28965000  5.46459000  1.83042000  1
  Mo  Mo12  1  3.62092000  3.66736000  0.01436430  1
  Mo  Mo13  1  5.44625000  5.42905000  -0.01983850  1
  Mo  Mo14  1  5.45195000  3.63542000  1.85084000  1
  Mo  Mo15  1  3.60848000  5.47102000  1.83600000  1
