# generated using pymatgen
data_Mo
_symmetry_space_group_name_H-M   'P 1'
_cell_length_a   7.27880859
_cell_length_b   7.27880859
_cell_length_c   3.63940430
_cell_angle_alpha   90.00000000
_cell_angle_beta   90.00000000
_cell_angle_gamma   90.00000000
_symmetry_Int_Tables_number   1
_chemical_formula_structural   Mo
_chemical_formula_sum   Mo16
_cell_volume   192.81947745
_cell_formula_units_Z   16
loop_
 _symmetry_equiv_pos_site_id
 _symmetry_equiv_pos_as_xyz
  1  'x, y, z'
loop_
 _atom_site_type_symbol
 _atom_site_label
 _atom_site_symmetry_multiplicity
 _atom_site_fract_x
 _atom_site_fract_y
 _atom_site_fract_z
 _atom_site_occupancy
  Mo  Mo0  1  0.06584890  0.00462524  3.63447000  1
  Mo  Mo1  1  1.84251000  1.84442000  3.62278000  1
  Mo  Mo2  1  1.79360000  7.26350000  1.76964000  1
  Mo  Mo3  1  0.00793764  1.78618000  1.85614000  1
  Mo  Mo4  1  3.63129000  0.00329987  -0.02118080  1
  Mo  Mo5  1  5.47108000  1.83169000  3.67133000  1
  Mo  Mo6  1  5.43774000  0.01148630  1.85417000  1
  Mo  Mo7  1  3.63195000  1.79772000  1.82723000  1
  Mo  Mo8  1  -0.01979120  3.62893000  0.01793990  1
  Mo  Mo9  1  1.81411000  5.40109000  0.01059090  1
  Mo  Mo10  1  1.80450000  3.68110000  1.86667000  1
  Mo  Mo11  1  7.24474000  5.47959000  1.80793000  1
  Mo  Mo12  1  3.63878000  3.59740000  -0.04131280  1
  Mo  Mo13  1  5.48060000  5.42850000  -0.01072470  1
  Mo  Mo14  1  5.44383000  3.64118000  1.81738000  1
  Mo  Mo15  1  3.65647000  5.54448000  1.78955000  1
