# generated using pymatgen
data_Mo
_symmetry_space_group_name_H-M   'P 1'
_cell_length_a   7.27880859
_cell_length_b   7.27880859
_cell_length_c   3.63940430
_cell_angle_alpha   90.00000000
_cell_angle_beta   90.00000000
_cell_angle_gamma   90.00000000
_symmetry_Int_Tables_number   1
_chemical_formula_structural   Mo
_chemical_formula_sum   Mo16
_cell_volume   192.81947745
_cell_formula_units_Z   16
loop_
 _symmetry_equiv_pos_site_id
 _symmetry_equiv_pos_as_xyz
  1  'x, y, z'
loop_
 _atom_site_type_symbol
 _atom_site_label
 _atom_site_symmetry_multiplicity
 _atom_site_fract_x
 _atom_site_fract_y
 _atom_site_fract_z
 _atom_site_occupancy
  Mo  Mo0  1  0.00805281  0.03864380  3.69803000  1
  Mo  Mo1  1  1.81875000  1.87537000  3.67373000  1
  Mo  Mo2  1  1.83048000  7.24963000  1.82371000  1
  Mo  Mo3  1  -0.01227470  1.78445000  1.90260000  1
  Mo  Mo4  1  3.55743000  0.01104070  -0.05104500  1
  Mo  Mo5  1  5.45591000  1.84640000  3.65020000  1
  Mo  Mo6  1  5.45536000  -0.01806240  1.79855000  1
  Mo  Mo7  1  3.64036000  1.76924000  1.80338000  1
  Mo  Mo8  1  -0.00869057  3.65441000  0.02867650  1
  Mo  Mo9  1  1.84433000  5.42715000  -0.03155000  1
  Mo  Mo10  1  1.80932000  3.64584000  1.80591000  1
  Mo  Mo11  1  7.29005000  5.46681000  1.78598000  1
  Mo  Mo12  1  3.65233000  3.63656000  -0.00585201  1
  Mo  Mo13  1  5.46365000  5.45610000  -0.03702590  1
  Mo  Mo14  1  5.48135000  3.62413000  1.82185000  1
  Mo  Mo15  1  3.65877000  5.47747000  1.80545000  1
