# generated using pymatgen
data_Mo
_symmetry_space_group_name_H-M   'P 1'
_cell_length_a   7.27880859
_cell_length_b   7.27880859
_cell_length_c   3.63940430
_cell_angle_alpha   90.00000000
_cell_angle_beta   90.00000000
_cell_angle_gamma   90.00000000
_symmetry_Int_Tables_number   1
_chemical_formula_structural   Mo
_chemical_formula_sum   Mo16
_cell_volume   192.81947745
_cell_formula_units_Z   16
loop_
 _symmetry_equiv_pos_site_id
 _symmetry_equiv_pos_as_xyz
  1  'x, y, z'
loop_
 _atom_site_type_symbol
 _atom_site_label
 _atom_site_symmetry_multiplicity
 _atom_site_fract_x
 _atom_site_fract_y
 _atom_site_fract_z
 _atom_site_occupancy
  Mo  Mo0  1  -0.02790510  0.02853910  3.65784000  1
  Mo  Mo1  1  1.80289000  1.83242000  3.61146000  1
  Mo  Mo2  1  1.79578000  7.28091000  1.85321000  1
  Mo  Mo3  1  -0.02859410  1.81194000  1.82535000  1
  Mo  Mo4  1  3.66059000  0.04626490  0.04700570  1
  Mo  Mo5  1  5.49054000  1.84521000  3.70372000  1
  Mo  Mo6  1  5.41962000  -0.06457940  1.86541000  1
  Mo  Mo7  1  3.64375000  1.77929000  1.83676000  1
  Mo  Mo8  1  0.04155700  3.63091000  -0.05018270  1
  Mo  Mo9  1  1.83574000  5.46110000  -0.00968807  1
  Mo  Mo10  1  1.81845000  3.60180000  1.78068000  1
  Mo  Mo11  1  7.33053000  5.46846000  1.76282000  1
  Mo  Mo12  1  3.64926000  3.62695000  -0.04069430  1
  Mo  Mo13  1  5.44950000  5.43890000  -0.03624010  1
  Mo  Mo14  1  5.45948000  3.68513000  1.84690000  1
  Mo  Mo15  1  3.60399000  5.47193000  1.81825000  1
