# generated using pymatgen
data_Mo
_symmetry_space_group_name_H-M   'P 1'
_cell_length_a   7.27808089
_cell_length_b   7.27808089
_cell_length_c   3.63904047
_cell_angle_alpha   90.00000000
_cell_angle_beta   90.00000000
_cell_angle_gamma   90.00000000
_symmetry_Int_Tables_number   1
_chemical_formula_structural   Mo
_chemical_formula_sum   Mo16
_cell_volume   192.76165285
_cell_formula_units_Z   16
loop_
 _symmetry_equiv_pos_site_id
 _symmetry_equiv_pos_as_xyz
  1  'x, y, z'
loop_
 _atom_site_type_symbol
 _atom_site_label
 _atom_site_symmetry_multiplicity
 _atom_site_fract_x
 _atom_site_fract_y
 _atom_site_fract_z
 _atom_site_occupancy
  Mo  Mo0  1  -0.00284203  7.28571000  -0.00796902  1
  Mo  Mo1  1  1.80983000  1.81142000  -0.00435456  1
  Mo  Mo2  1  1.82110000  7.28740000  1.82306000  1
  Mo  Mo3  1  7.27590000  1.82715000  1.81658000  1
  Mo  Mo4  1  3.65291000  7.27866000  3.64396000  1
  Mo  Mo5  1  5.45760000  1.80731000  -0.00918071  1
  Mo  Mo6  1  5.46916000  0.00115749  1.80660000  1
  Mo  Mo7  1  3.63321000  1.82474000  1.81792000  1
  Mo  Mo8  1  7.27856000  3.64324000  3.63009000  1
  Mo  Mo9  1  1.81896000  5.45407000  3.64686000  1
  Mo  Mo10  1  1.81786000  3.63472000  1.81854000  1
  Mo  Mo11  1  7.27057000  5.45806000  1.81055000  1
  Mo  Mo12  1  3.64680000  3.64630000  0.00453076  1
  Mo  Mo13  1  5.45696000  5.44777000  3.65285000  1
  Mo  Mo14  1  5.45309000  3.62585000  1.83163000  1
  Mo  Mo15  1  3.64241000  5.46853000  1.83031000  1
