# generated using pymatgen
data_Mo
_symmetry_space_group_name_H-M   'P 1'
_cell_length_a   7.27880859
_cell_length_b   7.27880859
_cell_length_c   3.63940430
_cell_angle_alpha   90.00000000
_cell_angle_beta   90.00000000
_cell_angle_gamma   90.00000000
_symmetry_Int_Tables_number   1
_chemical_formula_structural   Mo
_chemical_formula_sum   Mo16
_cell_volume   192.81947745
_cell_formula_units_Z   16
loop_
 _symmetry_equiv_pos_site_id
 _symmetry_equiv_pos_as_xyz
  1  'x, y, z'
loop_
 _atom_site_type_symbol
 _atom_site_label
 _atom_site_symmetry_multiplicity
 _atom_site_fract_x
 _atom_site_fract_y
 _atom_site_fract_z
 _atom_site_occupancy
  Mo  Mo0  1  -0.02546590  0.02307180  3.60842000  1
  Mo  Mo1  1  1.83193000  1.79644000  3.61369000  1
  Mo  Mo2  1  1.85128000  7.26364000  1.82071000  1
  Mo  Mo3  1  0.02050570  1.84208000  1.83495000  1
  Mo  Mo4  1  3.65417000  -0.00592282  -0.02147650  1
  Mo  Mo5  1  5.44749000  1.82384000  3.60773000  1
  Mo  Mo6  1  5.46345000  0.00807326  1.73391000  1
  Mo  Mo7  1  3.64029000  1.82875000  1.79227000  1
  Mo  Mo8  1  0.03213650  3.60640000  0.02361670  1
  Mo  Mo9  1  1.76203000  5.43656000  0.07058190  1
  Mo  Mo10  1  1.82064000  3.65582000  1.83510000  1
  Mo  Mo11  1  7.29280000  5.46035000  1.84334000  1
  Mo  Mo12  1  3.61311000  3.60999000  0.03713380  1
  Mo  Mo13  1  5.45029000  5.43260000  -0.02051960  1
  Mo  Mo14  1  5.43421000  3.68360000  1.82832000  1
  Mo  Mo15  1  3.65631000  5.47990000  1.86482000  1
