# generated using pymatgen
data_Mo
_symmetry_space_group_name_H-M   'P 1'
_cell_length_a   7.27880859
_cell_length_b   7.27880859
_cell_length_c   3.63940430
_cell_angle_alpha   90.00000000
_cell_angle_beta   90.00000000
_cell_angle_gamma   90.00000000
_symmetry_Int_Tables_number   1
_chemical_formula_structural   Mo
_chemical_formula_sum   Mo16
_cell_volume   192.81947745
_cell_formula_units_Z   16
loop_
 _symmetry_equiv_pos_site_id
 _symmetry_equiv_pos_as_xyz
  1  'x, y, z'
loop_
 _atom_site_type_symbol
 _atom_site_label
 _atom_site_symmetry_multiplicity
 _atom_site_fract_x
 _atom_site_fract_y
 _atom_site_fract_z
 _atom_site_occupancy
  Mo  Mo0  1  -0.02840030  0.02916790  3.63606000  1
  Mo  Mo1  1  1.85250000  1.80614000  3.61790000  1
  Mo  Mo2  1  1.84598000  7.24238000  1.81557000  1
  Mo  Mo3  1  0.02627700  1.81236000  1.81272000  1
  Mo  Mo4  1  3.66339000  -0.00441325  0.00463354  1
  Mo  Mo5  1  5.43713000  1.82577000  3.57577000  1
  Mo  Mo6  1  5.49122000  0.01067720  1.81928000  1
  Mo  Mo7  1  3.62489000  1.81105000  1.79916000  1
  Mo  Mo8  1  0.00523940  3.62089000  0.02021880  1
  Mo  Mo9  1  1.77117000  5.47030000  0.03083520  1
  Mo  Mo10  1  1.82969000  3.65565000  1.83669000  1
  Mo  Mo11  1  7.26571000  5.46121000  1.90506000  1
  Mo  Mo12  1  3.59327000  3.61838000  -0.01878750  1
  Mo  Mo13  1  5.46434000  5.44338000  0.01166770  1
  Mo  Mo14  1  5.46441000  3.65456000  1.78383000  1
  Mo  Mo15  1  3.63836000  5.48769000  1.82199000  1
