# generated using pymatgen
data_Mo
_symmetry_space_group_name_H-M   'P 1'
_cell_length_a   7.27880859
_cell_length_b   7.27880859
_cell_length_c   3.63940430
_cell_angle_alpha   90.00000000
_cell_angle_beta   90.00000000
_cell_angle_gamma   90.00000000
_symmetry_Int_Tables_number   1
_chemical_formula_structural   Mo
_chemical_formula_sum   Mo16
_cell_volume   192.81947745
_cell_formula_units_Z   16
loop_
 _symmetry_equiv_pos_site_id
 _symmetry_equiv_pos_as_xyz
  1  'x, y, z'
loop_
 _atom_site_type_symbol
 _atom_site_label
 _atom_site_symmetry_multiplicity
 _atom_site_fract_x
 _atom_site_fract_y
 _atom_site_fract_z
 _atom_site_occupancy
  Mo  Mo0  1  0.00106778  0.02327790  3.65325000  1
  Mo  Mo1  1  1.85115000  1.82435000  3.66877000  1
  Mo  Mo2  1  1.82905000  7.27328000  1.82421000  1
  Mo  Mo3  1  0.01121980  1.82518000  1.78080000  1
  Mo  Mo4  1  3.68193000  -0.01376210  -0.04677450  1
  Mo  Mo5  1  5.45980000  1.85850000  3.55532000  1
  Mo  Mo6  1  5.45569000  -0.01819310  1.79628000  1
  Mo  Mo7  1  3.63562000  1.79310000  1.74914000  1
  Mo  Mo8  1  -0.00519245  3.63348000  0.02601520  1
  Mo  Mo9  1  1.83567000  5.47444000  0.01461480  1
  Mo  Mo10  1  1.81323000  3.62201000  1.86996000  1
  Mo  Mo11  1  7.24437000  5.43388000  1.84341000  1
  Mo  Mo12  1  3.59590000  3.68149000  0.01269700  1
  Mo  Mo13  1  5.47520000  5.46091000  0.05680220  1
  Mo  Mo14  1  5.45776000  3.62791000  1.82825000  1
  Mo  Mo15  1  3.60273000  5.44535000  1.83986000  1
