# generated using pymatgen
data_Mo
_symmetry_space_group_name_H-M   'P 1'
_cell_length_a   7.27880859
_cell_length_b   7.27880859
_cell_length_c   3.63940430
_cell_angle_alpha   90.00000000
_cell_angle_beta   90.00000000
_cell_angle_gamma   90.00000000
_symmetry_Int_Tables_number   1
_chemical_formula_structural   Mo
_chemical_formula_sum   Mo16
_cell_volume   192.81947745
_cell_formula_units_Z   16
loop_
 _symmetry_equiv_pos_site_id
 _symmetry_equiv_pos_as_xyz
  1  'x, y, z'
loop_
 _atom_site_type_symbol
 _atom_site_label
 _atom_site_symmetry_multiplicity
 _atom_site_fract_x
 _atom_site_fract_y
 _atom_site_fract_z
 _atom_site_occupancy
  Mo  Mo0  1  0.00786924  0.00278596  3.62629000  1
  Mo  Mo1  1  1.78944000  1.78222000  3.65994000  1
  Mo  Mo2  1  1.81814000  7.30356000  1.81706000  1
  Mo  Mo3  1  -0.02147730  1.81772000  1.84281000  1
  Mo  Mo4  1  3.67101000  0.02117610  -0.05231940  1
  Mo  Mo5  1  5.44845000  1.82902000  3.56395000  1
  Mo  Mo6  1  5.47308000  -0.03324040  1.76983000  1
  Mo  Mo7  1  3.69906000  1.83686000  1.76365000  1
  Mo  Mo8  1  -0.00807943  3.62522000  0.03425850  1
  Mo  Mo9  1  1.80460000  5.49684000  -0.01077010  1
  Mo  Mo10  1  1.82174000  3.63320000  1.83278000  1
  Mo  Mo11  1  7.30595000  5.44872000  1.84849000  1
  Mo  Mo12  1  3.61846000  3.60519000  0.01772160  1
  Mo  Mo13  1  5.46485000  5.45069000  0.05022120  1
  Mo  Mo14  1  5.44017000  3.66963000  1.84491000  1
  Mo  Mo15  1  3.61195000  5.45558000  1.86379000  1
