# generated using pymatgen
data_Mo
_symmetry_space_group_name_H-M   'P 1'
_cell_length_a   7.27880859
_cell_length_b   7.27880859
_cell_length_c   3.63940430
_cell_angle_alpha   90.00000000
_cell_angle_beta   90.00000000
_cell_angle_gamma   90.00000000
_symmetry_Int_Tables_number   1
_chemical_formula_structural   Mo
_chemical_formula_sum   Mo16
_cell_volume   192.81947745
_cell_formula_units_Z   16
loop_
 _symmetry_equiv_pos_site_id
 _symmetry_equiv_pos_as_xyz
  1  'x, y, z'
loop_
 _atom_site_type_symbol
 _atom_site_label
 _atom_site_symmetry_multiplicity
 _atom_site_fract_x
 _atom_site_fract_y
 _atom_site_fract_z
 _atom_site_occupancy
  Mo  Mo0  1  0.03346660  -0.04278290  3.61508000  1
  Mo  Mo1  1  1.82314000  1.79028000  3.64376000  1
  Mo  Mo2  1  1.80133000  7.30881000  1.88789000  1
  Mo  Mo3  1  -0.00281469  1.85095000  1.77634000  1
  Mo  Mo4  1  3.67500000  -0.00811930  0.04814290  1
  Mo  Mo5  1  5.47208000  1.76655000  3.61104000  1
  Mo  Mo6  1  5.45755000  0.03271300  1.80817000  1
  Mo  Mo7  1  3.62907000  1.88860000  1.80419000  1
  Mo  Mo8  1  -0.01119590  3.62784000  -0.05432880  1
  Mo  Mo9  1  1.80850000  5.45903000  0.01858650  1
  Mo  Mo10  1  1.82429000  3.62758000  1.77666000  1
  Mo  Mo11  1  7.25382000  5.43859000  1.82488000  1
  Mo  Mo12  1  3.64857000  3.64039000  -0.01360540  1
  Mo  Mo13  1  5.45882000  5.48937000  0.05407550  1
  Mo  Mo14  1  5.45073000  3.64206000  1.83080000  1
  Mo  Mo15  1  3.62282000  5.43332000  1.84092000  1
