# generated using pymatgen
data_Mo
_symmetry_space_group_name_H-M   'P 1'
_cell_length_a   7.27880859
_cell_length_b   7.27880859
_cell_length_c   3.63940430
_cell_angle_alpha   90.00000000
_cell_angle_beta   90.00000000
_cell_angle_gamma   90.00000000
_symmetry_Int_Tables_number   1
_chemical_formula_structural   Mo
_chemical_formula_sum   Mo16
_cell_volume   192.81947745
_cell_formula_units_Z   16
loop_
 _symmetry_equiv_pos_site_id
 _symmetry_equiv_pos_as_xyz
  1  'x, y, z'
loop_
 _atom_site_type_symbol
 _atom_site_label
 _atom_site_symmetry_multiplicity
 _atom_site_fract_x
 _atom_site_fract_y
 _atom_site_fract_z
 _atom_site_occupancy
  Mo  Mo0  1  -0.03969620  0.06308710  3.68091000  1
  Mo  Mo1  1  1.81034000  1.81803000  3.62206000  1
  Mo  Mo2  1  1.85443000  7.25586000  1.82175000  1
  Mo  Mo3  1  0.02384960  1.81651000  1.88315000  1
  Mo  Mo4  1  3.63624000  0.00473031  0.02330590  1
  Mo  Mo5  1  5.46311000  1.81796000  3.68381000  1
  Mo  Mo6  1  5.47348000  -0.02009870  1.83652000  1
  Mo  Mo7  1  3.60001000  1.81520000  1.81533000  1
  Mo  Mo8  1  0.00467718  3.57147000  -0.02603980  1
  Mo  Mo9  1  1.79273000  5.48185000  -0.02429010  1
  Mo  Mo10  1  1.84798000  3.68658000  1.73912000  1
  Mo  Mo11  1  7.28895000  5.46522000  1.80590000  1
  Mo  Mo12  1  3.61519000  3.60353000  -0.00589243  1
  Mo  Mo13  1  5.46753000  5.40780000  -0.00859400  1
  Mo  Mo14  1  5.46583000  3.65746000  1.81419000  1
  Mo  Mo15  1  3.64054000  5.49997000  1.81136000  1
