# generated using pymatgen
data_Mo
_symmetry_space_group_name_H-M   'P 1'
_cell_length_a   7.27880859
_cell_length_b   7.27880859
_cell_length_c   3.63940430
_cell_angle_alpha   90.00000000
_cell_angle_beta   90.00000000
_cell_angle_gamma   90.00000000
_symmetry_Int_Tables_number   1
_chemical_formula_structural   Mo
_chemical_formula_sum   Mo16
_cell_volume   192.81947745
_cell_formula_units_Z   16
loop_
 _symmetry_equiv_pos_site_id
 _symmetry_equiv_pos_as_xyz
  1  'x, y, z'
loop_
 _atom_site_type_symbol
 _atom_site_label
 _atom_site_symmetry_multiplicity
 _atom_site_fract_x
 _atom_site_fract_y
 _atom_site_fract_z
 _atom_site_occupancy
  Mo  Mo0  1  -0.03596810  0.01611550  3.63309000  1
  Mo  Mo1  1  1.78334000  1.78796000  3.63520000  1
  Mo  Mo2  1  1.85673000  7.28257000  1.78443000  1
  Mo  Mo3  1  -0.04030770  1.80374000  1.82233000  1
  Mo  Mo4  1  3.66872000  0.01987320  -0.01110880  1
  Mo  Mo5  1  5.46826000  1.82595000  3.63044000  1
  Mo  Mo6  1  5.47403000  -0.03025740  1.82011000  1
  Mo  Mo7  1  3.66417000  1.83940000  1.83226000  1
  Mo  Mo8  1  0.02291520  3.61194000  0.05189870  1
  Mo  Mo9  1  1.81908000  5.48658000  0.01753290  1
  Mo  Mo10  1  1.80559000  3.64610000  1.86492000  1
  Mo  Mo11  1  7.28949000  5.43162000  1.87438000  1
  Mo  Mo12  1  3.61635000  3.61014000  0.01735100  1
  Mo  Mo13  1  5.44613000  5.46363000  -0.01722330  1
  Mo  Mo14  1  5.46492000  3.67646000  1.76288000  1
  Mo  Mo15  1  3.64174000  5.47338000  1.75411000  1
