# generated using pymatgen
data_Mo
_symmetry_space_group_name_H-M   'P 1'
_cell_length_a   7.27880859
_cell_length_b   7.27880859
_cell_length_c   3.63940430
_cell_angle_alpha   90.00000000
_cell_angle_beta   90.00000000
_cell_angle_gamma   90.00000000
_symmetry_Int_Tables_number   1
_chemical_formula_structural   Mo
_chemical_formula_sum   Mo16
_cell_volume   192.81947745
_cell_formula_units_Z   16
loop_
 _symmetry_equiv_pos_site_id
 _symmetry_equiv_pos_as_xyz
  1  'x, y, z'
loop_
 _atom_site_type_symbol
 _atom_site_label
 _atom_site_symmetry_multiplicity
 _atom_site_fract_x
 _atom_site_fract_y
 _atom_site_fract_z
 _atom_site_occupancy
  Mo  Mo0  1  0.01295550  0.00612161  3.64025000  1
  Mo  Mo1  1  1.82623000  1.80307000  3.62113000  1
  Mo  Mo2  1  1.80898000  7.25636000  1.81757000  1
  Mo  Mo3  1  -0.02764240  1.82752000  1.78910000  1
  Mo  Mo4  1  3.67764000  0.06959160  -0.05078550  1
  Mo  Mo5  1  5.47774000  1.82953000  3.63617000  1
  Mo  Mo6  1  5.44240000  -0.06915580  1.77075000  1
  Mo  Mo7  1  3.64369000  1.83368000  1.76238000  1
  Mo  Mo8  1  0.03271830  3.63981000  0.04145180  1
  Mo  Mo9  1  1.82864000  5.50010000  0.06693390  1
  Mo  Mo10  1  1.82139000  3.62242000  1.86775000  1
  Mo  Mo11  1  7.30443000  5.43375000  1.84030000  1
  Mo  Mo12  1  3.59214000  3.63237000  -0.00335188  1
  Mo  Mo13  1  5.46785000  5.46162000  -0.01040840  1
  Mo  Mo14  1  5.41830000  3.67559000  1.86737000  1
  Mo  Mo15  1  3.61775000  5.42282000  1.81599000  1
