# generated using pymatgen
data_Mo
_symmetry_space_group_name_H-M   'P 1'
_cell_length_a   7.27808089
_cell_length_b   7.27808089
_cell_length_c   3.63904047
_cell_angle_alpha   90.00000000
_cell_angle_beta   90.00000000
_cell_angle_gamma   90.00000000
_symmetry_Int_Tables_number   1
_chemical_formula_structural   Mo
_chemical_formula_sum   Mo16
_cell_volume   192.76165285
_cell_formula_units_Z   16
loop_
 _symmetry_equiv_pos_site_id
 _symmetry_equiv_pos_as_xyz
  1  'x, y, z'
loop_
 _atom_site_type_symbol
 _atom_site_label
 _atom_site_symmetry_multiplicity
 _atom_site_fract_x
 _atom_site_fract_y
 _atom_site_fract_z
 _atom_site_occupancy
  Mo  Mo0  1  0.00618647  7.27753000  0.01004230  1
  Mo  Mo1  1  1.82314000  1.82224000  0.00160502  1
  Mo  Mo2  1  1.80821000  7.27603000  1.82328000  1
  Mo  Mo3  1  7.27568000  1.82576000  1.82766000  1
  Mo  Mo4  1  3.64176000  7.27314000  3.63231000  1
  Mo  Mo5  1  5.45678000  1.82232000  0.00281037  1
  Mo  Mo6  1  5.46665000  0.00515331  1.82249000  1
  Mo  Mo7  1  3.65241000  1.81832000  1.81980000  1
  Mo  Mo8  1  7.27405000  3.63487000  3.63700000  1
  Mo  Mo9  1  1.81696000  5.46234000  3.63799000  1
  Mo  Mo10  1  1.82367000  3.64862000  1.81857000  1
  Mo  Mo11  1  7.26799000  5.45810000  1.81596000  1
  Mo  Mo12  1  3.63626000  3.63276000  0.00263552  1
  Mo  Mo13  1  5.44894000  5.44781000  3.62882000  1
  Mo  Mo14  1  5.46768000  3.63162000  1.82255000  1
  Mo  Mo15  1  3.63572000  5.46549000  1.80849000  1
