# generated using pymatgen
data_Mo
_symmetry_space_group_name_H-M   'P 1'
_cell_length_a   7.27880859
_cell_length_b   7.27880859
_cell_length_c   3.63940430
_cell_angle_alpha   90.00000000
_cell_angle_beta   90.00000000
_cell_angle_gamma   90.00000000
_symmetry_Int_Tables_number   1
_chemical_formula_structural   Mo
_chemical_formula_sum   Mo16
_cell_volume   192.81947745
_cell_formula_units_Z   16
loop_
 _symmetry_equiv_pos_site_id
 _symmetry_equiv_pos_as_xyz
  1  'x, y, z'
loop_
 _atom_site_type_symbol
 _atom_site_label
 _atom_site_symmetry_multiplicity
 _atom_site_fract_x
 _atom_site_fract_y
 _atom_site_fract_z
 _atom_site_occupancy
  Mo  Mo0  1  -0.02608500  -0.02391660  3.65329000  1
  Mo  Mo1  1  1.84013000  1.80376000  3.61137000  1
  Mo  Mo2  1  1.81096000  7.30374000  1.79535000  1
  Mo  Mo3  1  0.02827420  1.85174000  1.83780000  1
  Mo  Mo4  1  3.62684000  -0.01437280  0.00486928  1
  Mo  Mo5  1  5.43452000  1.80194000  3.72893000  1
  Mo  Mo6  1  5.44592000  0.04198450  1.78290000  1
  Mo  Mo7  1  3.61701000  1.82119000  1.83681000  1
  Mo  Mo8  1  0.04883240  3.63550000  -0.01697380  1
  Mo  Mo9  1  1.79645000  5.45624000  0.01335990  1
  Mo  Mo10  1  1.80176000  3.67968000  1.78006000  1
  Mo  Mo11  1  7.27042000  5.45956000  1.76403000  1
  Mo  Mo12  1  3.62260000  3.64630000  0.01638000  1
  Mo  Mo13  1  5.47077000  5.43535000  -0.03511010  1
  Mo  Mo14  1  5.45648000  3.57422000  1.85254000  1
  Mo  Mo15  1  3.70031000  5.47227000  1.84698000  1
