# generated using pymatgen
data_Mo
_symmetry_space_group_name_H-M   'P 1'
_cell_length_a   7.27880859
_cell_length_b   7.27880859
_cell_length_c   3.63940430
_cell_angle_alpha   90.00000000
_cell_angle_beta   90.00000000
_cell_angle_gamma   90.00000000
_symmetry_Int_Tables_number   1
_chemical_formula_structural   Mo
_chemical_formula_sum   Mo16
_cell_volume   192.81947745
_cell_formula_units_Z   16
loop_
 _symmetry_equiv_pos_site_id
 _symmetry_equiv_pos_as_xyz
  1  'x, y, z'
loop_
 _atom_site_type_symbol
 _atom_site_label
 _atom_site_symmetry_multiplicity
 _atom_site_fract_x
 _atom_site_fract_y
 _atom_site_fract_z
 _atom_site_occupancy
  Mo  Mo0  1  -0.06736160  -0.03353600  3.69761000  1
  Mo  Mo1  1  1.79984000  1.78676000  3.69214000  1
  Mo  Mo2  1  1.81630000  7.29446000  1.85222000  1
  Mo  Mo3  1  0.02180640  1.82590000  1.89991000  1
  Mo  Mo4  1  3.63523000  0.00874722  -0.03292520  1
  Mo  Mo5  1  5.44004000  1.79866000  3.64359000  1
  Mo  Mo6  1  5.46041000  0.00298883  1.76945000  1
  Mo  Mo7  1  3.65638000  1.85384000  1.80878000  1
  Mo  Mo8  1  0.00630457  3.65486000  0.04127830  1
  Mo  Mo9  1  1.80497000  5.48168000  -0.05161560  1
  Mo  Mo10  1  1.83317000  3.61864000  1.77408000  1
  Mo  Mo11  1  7.30613000  5.45146000  1.78535000  1
  Mo  Mo12  1  3.64888000  3.64687000  -0.00929203  1
  Mo  Mo13  1  5.46087000  5.48645000  -0.03975510  1
  Mo  Mo14  1  5.45629000  3.63258000  1.83647000  1
  Mo  Mo15  1  3.66594000  5.43483000  1.80532000  1
