# generated using pymatgen
data_Mo
_symmetry_space_group_name_H-M   'P 1'
_cell_length_a   7.27880859
_cell_length_b   7.27880859
_cell_length_c   3.63940430
_cell_angle_alpha   90.00000000
_cell_angle_beta   90.00000000
_cell_angle_gamma   90.00000000
_symmetry_Int_Tables_number   1
_chemical_formula_structural   Mo
_chemical_formula_sum   Mo16
_cell_volume   192.81947745
_cell_formula_units_Z   16
loop_
 _symmetry_equiv_pos_site_id
 _symmetry_equiv_pos_as_xyz
  1  'x, y, z'
loop_
 _atom_site_type_symbol
 _atom_site_label
 _atom_site_symmetry_multiplicity
 _atom_site_fract_x
 _atom_site_fract_y
 _atom_site_fract_z
 _atom_site_occupancy
  Mo  Mo0  1  -0.03534830  -0.00326696  3.62295000  1
  Mo  Mo1  1  1.83449000  1.78781000  3.60904000  1
  Mo  Mo2  1  1.79113000  7.26908000  1.80011000  1
  Mo  Mo3  1  0.03527740  1.84461000  1.82011000  1
  Mo  Mo4  1  3.69149000  -0.02285900  0.00648892  1
  Mo  Mo5  1  5.48770000  1.82363000  3.63358000  1
  Mo  Mo6  1  5.47465000  0.01767850  1.83040000  1
  Mo  Mo7  1  3.62705000  1.86632000  1.85832000  1
  Mo  Mo8  1  -0.00815419  3.65972000  0.03532120  1
  Mo  Mo9  1  1.83382000  5.49881000  -0.00954001  1
  Mo  Mo10  1  1.84757000  3.63763000  1.85971000  1
  Mo  Mo11  1  7.26554000  5.38944000  1.81366000  1
  Mo  Mo12  1  3.60443000  3.65292000  -0.03102430  1
  Mo  Mo13  1  5.42045000  5.48263000  -0.00014273  1
  Mo  Mo14  1  5.46002000  3.59845000  1.85310000  1
  Mo  Mo15  1  3.61505000  5.44260000  1.77052000  1
