# generated using pymatgen
data_Mo
_symmetry_space_group_name_H-M   'P 1'
_cell_length_a   7.27880859
_cell_length_b   7.27880859
_cell_length_c   3.63940430
_cell_angle_alpha   90.00000000
_cell_angle_beta   90.00000000
_cell_angle_gamma   90.00000000
_symmetry_Int_Tables_number   1
_chemical_formula_structural   Mo
_chemical_formula_sum   Mo16
_cell_volume   192.81947745
_cell_formula_units_Z   16
loop_
 _symmetry_equiv_pos_site_id
 _symmetry_equiv_pos_as_xyz
  1  'x, y, z'
loop_
 _atom_site_type_symbol
 _atom_site_label
 _atom_site_symmetry_multiplicity
 _atom_site_fract_x
 _atom_site_fract_y
 _atom_site_fract_z
 _atom_site_occupancy
  Mo  Mo0  1  -0.02015420  0.00691879  3.59989000  1
  Mo  Mo1  1  1.80867000  1.83294000  3.65645000  1
  Mo  Mo2  1  1.81548000  7.25735000  1.75426000  1
  Mo  Mo3  1  0.00772035  1.82023000  1.81821000  1
  Mo  Mo4  1  3.65110000  0.02196900  -0.03899410  1
  Mo  Mo5  1  5.48793000  1.86171000  3.72211000  1
  Mo  Mo6  1  5.47388000  0.01065760  1.80426000  1
  Mo  Mo7  1  3.66292000  1.77862000  1.83737000  1
  Mo  Mo8  1  0.06349620  3.60964000  -0.00377139  1
  Mo  Mo9  1  1.80896000  5.42285000  0.00146678  1
  Mo  Mo10  1  1.83411000  3.66726000  1.83622000  1
  Mo  Mo11  1  7.23292000  5.49939000  1.80107000  1
  Mo  Mo12  1  3.61314000  3.62336000  0.08506650  1
  Mo  Mo13  1  5.43803000  5.39114000  -0.04943640  1
  Mo  Mo14  1  5.40606000  3.66351000  1.81293000  1
  Mo  Mo15  1  3.66092000  5.47764000  1.83549000  1
