# generated using pymatgen
data_Mo
_symmetry_space_group_name_H-M   'P 1'
_cell_length_a   7.27880859
_cell_length_b   7.27880859
_cell_length_c   3.63940430
_cell_angle_alpha   90.00000000
_cell_angle_beta   90.00000000
_cell_angle_gamma   90.00000000
_symmetry_Int_Tables_number   1
_chemical_formula_structural   Mo
_chemical_formula_sum   Mo16
_cell_volume   192.81947745
_cell_formula_units_Z   16
loop_
 _symmetry_equiv_pos_site_id
 _symmetry_equiv_pos_as_xyz
  1  'x, y, z'
loop_
 _atom_site_type_symbol
 _atom_site_label
 _atom_site_symmetry_multiplicity
 _atom_site_fract_x
 _atom_site_fract_y
 _atom_site_fract_z
 _atom_site_occupancy
  Mo  Mo0  1  -0.01104870  -0.00306142  3.60694000  1
  Mo  Mo1  1  1.81072000  1.82363000  3.65288000  1
  Mo  Mo2  1  1.80586000  7.27702000  1.79404000  1
  Mo  Mo3  1  0.00919813  1.81856000  1.84115000  1
  Mo  Mo4  1  3.65129000  -0.05819570  0.03441420  1
  Mo  Mo5  1  5.41440000  1.80368000  3.67402000  1
  Mo  Mo6  1  5.45711000  0.03360500  1.84591000  1
  Mo  Mo7  1  3.63351000  1.81857000  1.87054000  1
  Mo  Mo8  1  0.02868220  3.67787000  0.00244911  1
  Mo  Mo9  1  1.80882000  5.50608000  -0.05444680  1
  Mo  Mo10  1  1.82690000  3.63821000  1.80101000  1
  Mo  Mo11  1  7.24627000  5.41930000  1.80006000  1
  Mo  Mo12  1  3.62836000  3.69988000  0.01773680  1
  Mo  Mo13  1  5.44966000  5.44778000  -0.01561990  1
  Mo  Mo14  1  5.48566000  3.58626000  1.82689000  1
  Mo  Mo15  1  3.69979000  5.45600000  1.77463000  1
