# generated using pymatgen
data_Mo
_symmetry_space_group_name_H-M   'P 1'
_cell_length_a   7.27880859
_cell_length_b   7.27880859
_cell_length_c   3.63940430
_cell_angle_alpha   90.00000000
_cell_angle_beta   90.00000000
_cell_angle_gamma   90.00000000
_symmetry_Int_Tables_number   1
_chemical_formula_structural   Mo
_chemical_formula_sum   Mo16
_cell_volume   192.81947745
_cell_formula_units_Z   16
loop_
 _symmetry_equiv_pos_site_id
 _symmetry_equiv_pos_as_xyz
  1  'x, y, z'
loop_
 _atom_site_type_symbol
 _atom_site_label
 _atom_site_symmetry_multiplicity
 _atom_site_fract_x
 _atom_site_fract_y
 _atom_site_fract_z
 _atom_site_occupancy
  Mo  Mo0  1  0.02807310  -0.01425240  3.63763000  1
  Mo  Mo1  1  1.84736000  1.83504000  3.59909000  1
  Mo  Mo2  1  1.81461000  7.25782000  1.82074000  1
  Mo  Mo3  1  0.03465770  1.81138000  1.79498000  1
  Mo  Mo4  1  3.60672000  0.00252409  0.00164616  1
  Mo  Mo5  1  5.46867000  1.77896000  3.62523000  1
  Mo  Mo6  1  5.45137000  0.00474003  1.82473000  1
  Mo  Mo7  1  3.63554000  1.83722000  1.80459000  1
  Mo  Mo8  1  -0.00645654  3.66639000  -0.04434030  1
  Mo  Mo9  1  1.80358000  5.45115000  0.03492530  1
  Mo  Mo10  1  1.80544000  3.64054000  1.81406000  1
  Mo  Mo11  1  7.26627000  5.42008000  1.78449000  1
  Mo  Mo12  1  3.65211000  3.65053000  0.03105100  1
  Mo  Mo13  1  5.46308000  5.52626000  0.00871183  1
  Mo  Mo14  1  5.42585000  3.61585000  1.82385000  1
  Mo  Mo15  1  3.64830000  5.46096000  1.91121000  1
