# generated using pymatgen
data_Mo
_symmetry_space_group_name_H-M   'P 1'
_cell_length_a   7.27880859
_cell_length_b   7.27880859
_cell_length_c   3.63940430
_cell_angle_alpha   90.00000000
_cell_angle_beta   90.00000000
_cell_angle_gamma   90.00000000
_symmetry_Int_Tables_number   1
_chemical_formula_structural   Mo
_chemical_formula_sum   Mo16
_cell_volume   192.81947745
_cell_formula_units_Z   16
loop_
 _symmetry_equiv_pos_site_id
 _symmetry_equiv_pos_as_xyz
  1  'x, y, z'
loop_
 _atom_site_type_symbol
 _atom_site_label
 _atom_site_symmetry_multiplicity
 _atom_site_fract_x
 _atom_site_fract_y
 _atom_site_fract_z
 _atom_site_occupancy
  Mo  Mo0  1  -0.05533670  0.01864680  3.66455000  1
  Mo  Mo1  1  1.85543000  1.83017000  3.70251000  1
  Mo  Mo2  1  1.82848000  7.24187000  1.79812000  1
  Mo  Mo3  1  0.01914900  1.84034000  1.83957000  1
  Mo  Mo4  1  3.66274000  0.01728380  -0.01369540  1
  Mo  Mo5  1  5.46399000  1.82191000  3.64979000  1
  Mo  Mo6  1  5.44956000  -0.03304930  1.86694000  1
  Mo  Mo7  1  3.59964000  1.79982000  1.87307000  1
  Mo  Mo8  1  -0.00014829  3.58459000  -0.01476870  1
  Mo  Mo9  1  1.80608000  5.44367000  -0.10309700  1
  Mo  Mo10  1  1.81455000  3.73866000  1.82061000  1
  Mo  Mo11  1  7.24719000  5.48329000  1.80154000  1
  Mo  Mo12  1  3.64117000  3.61040000  -0.03966600  1
  Mo  Mo13  1  5.50144000  5.42786000  0.03099450  1
  Mo  Mo14  1  5.45259000  3.63826000  1.81274000  1
  Mo  Mo15  1  3.65866000  5.48147000  1.78340000  1
