# generated using pymatgen
data_Mo
_symmetry_space_group_name_H-M   'P 1'
_cell_length_a   7.27880859
_cell_length_b   7.27880859
_cell_length_c   3.63940430
_cell_angle_alpha   90.00000000
_cell_angle_beta   90.00000000
_cell_angle_gamma   90.00000000
_symmetry_Int_Tables_number   1
_chemical_formula_structural   Mo
_chemical_formula_sum   Mo16
_cell_volume   192.81947745
_cell_formula_units_Z   16
loop_
 _symmetry_equiv_pos_site_id
 _symmetry_equiv_pos_as_xyz
  1  'x, y, z'
loop_
 _atom_site_type_symbol
 _atom_site_label
 _atom_site_symmetry_multiplicity
 _atom_site_fract_x
 _atom_site_fract_y
 _atom_site_fract_z
 _atom_site_occupancy
  Mo  Mo0  1  -0.00891362  0.01339280  3.62412000  1
  Mo  Mo1  1  1.82585000  1.85883000  3.60173000  1
  Mo  Mo2  1  1.81035000  7.27174000  1.80625000  1
  Mo  Mo3  1  -0.00273335  1.78168000  1.81506000  1
  Mo  Mo4  1  3.68216000  0.00271714  -0.03121950  1
  Mo  Mo5  1  5.46216000  1.86451000  3.62767000  1
  Mo  Mo6  1  5.42744000  -0.02852180  1.80196000  1
  Mo  Mo7  1  3.61934000  1.78851000  1.75439000  1
  Mo  Mo8  1  0.04643580  3.67882000  -0.01048570  1
  Mo  Mo9  1  1.80904000  5.45803000  0.02381110  1
  Mo  Mo10  1  1.82796000  3.62642000  1.82073000  1
  Mo  Mo11  1  7.29278000  5.47902000  1.82473000  1
  Mo  Mo12  1  3.63396000  3.61765000  0.04859530  1
  Mo  Mo13  1  5.45899000  5.43729000  0.06327450  1
  Mo  Mo14  1  5.45009000  3.64012000  1.85678000  1
  Mo  Mo15  1  3.61028000  5.45498000  1.84520000  1
