# generated using pymatgen
data_Mo
_symmetry_space_group_name_H-M   'P 1'
_cell_length_a   7.27880859
_cell_length_b   7.27880859
_cell_length_c   3.63940430
_cell_angle_alpha   90.00000000
_cell_angle_beta   90.00000000
_cell_angle_gamma   90.00000000
_symmetry_Int_Tables_number   1
_chemical_formula_structural   Mo
_chemical_formula_sum   Mo16
_cell_volume   192.81947745
_cell_formula_units_Z   16
loop_
 _symmetry_equiv_pos_site_id
 _symmetry_equiv_pos_as_xyz
  1  'x, y, z'
loop_
 _atom_site_type_symbol
 _atom_site_label
 _atom_site_symmetry_multiplicity
 _atom_site_fract_x
 _atom_site_fract_y
 _atom_site_fract_z
 _atom_site_occupancy
  Mo  Mo0  1  -0.02013000  0.02658250  3.66974000  1
  Mo  Mo1  1  1.85558000  1.79317000  3.58522000  1
  Mo  Mo2  1  1.81827000  7.22933000  1.86336000  1
  Mo  Mo3  1  0.02822330  1.83367000  1.83941000  1
  Mo  Mo4  1  3.64593000  0.01662110  -0.02864170  1
  Mo  Mo5  1  5.46968000  1.85228000  3.66370000  1
  Mo  Mo6  1  5.48191000  0.01256240  1.79171000  1
  Mo  Mo7  1  3.61771000  1.82053000  1.79068000  1
  Mo  Mo8  1  -0.01100610  3.57764000  -0.00232034  1
  Mo  Mo9  1  1.80382000  5.42584000  0.06744930  1
  Mo  Mo10  1  1.80536000  3.71576000  1.81077000  1
  Mo  Mo11  1  7.23681000  5.48960000  1.84121000  1
  Mo  Mo12  1  3.63699000  3.60970000  -0.05400680  1
  Mo  Mo13  1  5.47372000  5.42927000  -0.04390840  1
  Mo  Mo14  1  5.43129000  3.64722000  1.82608000  1
  Mo  Mo15  1  3.67104000  5.46541000  1.85215000  1
