# generated using pymatgen
data_Mo
_symmetry_space_group_name_H-M   'P 1'
_cell_length_a   7.27880859
_cell_length_b   7.27880859
_cell_length_c   3.63940430
_cell_angle_alpha   90.00000000
_cell_angle_beta   90.00000000
_cell_angle_gamma   90.00000000
_symmetry_Int_Tables_number   1
_chemical_formula_structural   Mo
_chemical_formula_sum   Mo16
_cell_volume   192.81947745
_cell_formula_units_Z   16
loop_
 _symmetry_equiv_pos_site_id
 _symmetry_equiv_pos_as_xyz
  1  'x, y, z'
loop_
 _atom_site_type_symbol
 _atom_site_label
 _atom_site_symmetry_multiplicity
 _atom_site_fract_x
 _atom_site_fract_y
 _atom_site_fract_z
 _atom_site_occupancy
  Mo  Mo0  1  -0.00866027  -0.01537310  3.65969000  1
  Mo  Mo1  1  1.85216000  1.77700000  3.64584000  1
  Mo  Mo2  1  1.79530000  7.29321000  1.83929000  1
  Mo  Mo3  1  -0.03245360  1.85391000  1.78996000  1
  Mo  Mo4  1  3.65735000  0.01118260  0.03348120  1
  Mo  Mo5  1  5.48232000  1.82468000  3.70375000  1
  Mo  Mo6  1  5.44593000  -0.01398360  1.85745000  1
  Mo  Mo7  1  3.66267000  1.82949000  1.86937000  1
  Mo  Mo8  1  0.00725457  3.67952000  -0.06721590  1
  Mo  Mo9  1  1.84373000  5.52301000  -0.00556183  1
  Mo  Mo10  1  1.81823000  3.59833000  1.79914000  1
  Mo  Mo11  1  7.26410000  5.44965000  1.76572000  1
  Mo  Mo12  1  3.61212000  3.65496000  -0.01972160  1
  Mo  Mo13  1  5.46322000  5.45186000  -0.03380130  1
  Mo  Mo14  1  5.46798000  3.62944000  1.82412000  1
  Mo  Mo15  1  3.61392000  5.39831000  1.81108000  1
