# generated using pymatgen
data_Mo
_symmetry_space_group_name_H-M   'P 1'
_cell_length_a   7.27808089
_cell_length_b   7.27808089
_cell_length_c   3.63904047
_cell_angle_alpha   90.00000000
_cell_angle_beta   90.00000000
_cell_angle_gamma   90.00000000
_symmetry_Int_Tables_number   1
_chemical_formula_structural   Mo
_chemical_formula_sum   Mo16
_cell_volume   192.76165285
_cell_formula_units_Z   16
loop_
 _symmetry_equiv_pos_site_id
 _symmetry_equiv_pos_as_xyz
  1  'x, y, z'
loop_
 _atom_site_type_symbol
 _atom_site_label
 _atom_site_symmetry_multiplicity
 _atom_site_fract_x
 _atom_site_fract_y
 _atom_site_fract_z
 _atom_site_occupancy
  Mo  Mo0  1  -0.00341493  7.27323000  -0.00185630  1
  Mo  Mo1  1  1.82106000  1.82909000  -0.01127730  1
  Mo  Mo2  1  1.83007000  7.27379000  1.80905000  1
  Mo  Mo3  1  7.28482000  1.81571000  1.80820000  1
  Mo  Mo4  1  3.63346000  7.28158000  3.64151000  1
  Mo  Mo5  1  5.46330000  1.82520000  -0.00284600  1
  Mo  Mo6  1  5.45553000  -0.01456880  1.81787000  1
  Mo  Mo7  1  3.63147000  1.81451000  1.82545000  1
  Mo  Mo8  1  7.27871000  3.64254000  3.62929000  1
  Mo  Mo9  1  1.81992000  5.46832000  3.64906000  1
  Mo  Mo10  1  1.81923000  3.64882000  1.82870000  1
  Mo  Mo11  1  7.28442000  5.45250000  1.82233000  1
  Mo  Mo12  1  3.63172000  3.63402000  0.01001030  1
  Mo  Mo13  1  5.46831000  5.46053000  3.64389000  1
  Mo  Mo14  1  5.44433000  3.64068000  1.81468000  1
  Mo  Mo15  1  3.63916000  5.45613000  1.82793000  1
