# generated using pymatgen
data_Mo
_symmetry_space_group_name_H-M   'P 1'
_cell_length_a   7.27880859
_cell_length_b   7.27880859
_cell_length_c   3.63940430
_cell_angle_alpha   90.00000000
_cell_angle_beta   90.00000000
_cell_angle_gamma   90.00000000
_symmetry_Int_Tables_number   1
_chemical_formula_structural   Mo
_chemical_formula_sum   Mo16
_cell_volume   192.81947745
_cell_formula_units_Z   16
loop_
 _symmetry_equiv_pos_site_id
 _symmetry_equiv_pos_as_xyz
  1  'x, y, z'
loop_
 _atom_site_type_symbol
 _atom_site_label
 _atom_site_symmetry_multiplicity
 _atom_site_fract_x
 _atom_site_fract_y
 _atom_site_fract_z
 _atom_site_occupancy
  Mo  Mo0  1  -0.01000630  0.03189590  3.65279000  1
  Mo  Mo1  1  1.80905000  1.85786000  3.61549000  1
  Mo  Mo2  1  1.84298000  7.26424000  1.83515000  1
  Mo  Mo3  1  0.02014730  1.78126000  1.78758000  1
  Mo  Mo4  1  3.62550000  0.02333780  0.01444660  1
  Mo  Mo5  1  5.47167000  1.86135000  3.58273000  1
  Mo  Mo6  1  5.49354000  -0.02357780  1.80310000  1
  Mo  Mo7  1  3.66597000  1.79043000  1.80387000  1
  Mo  Mo8  1  -0.03611990  3.63008000  -0.03341140  1
  Mo  Mo9  1  1.81024000  5.44321000  -0.00458845  1
  Mo  Mo10  1  1.79989000  3.63492000  1.77626000  1
  Mo  Mo11  1  7.28320000  5.47148000  1.79384000  1
  Mo  Mo12  1  3.63741000  3.63816000  0.04619700  1
  Mo  Mo13  1  5.44000000  5.44028000  0.03390650  1
  Mo  Mo14  1  5.43605000  3.63176000  1.84063000  1
  Mo  Mo15  1  3.65566000  5.46853000  1.92461000  1
