# generated using pymatgen
data_Mo
_symmetry_space_group_name_H-M   'P 1'
_cell_length_a   7.27880859
_cell_length_b   7.27880859
_cell_length_c   3.63940430
_cell_angle_alpha   90.00000000
_cell_angle_beta   90.00000000
_cell_angle_gamma   90.00000000
_symmetry_Int_Tables_number   1
_chemical_formula_structural   Mo
_chemical_formula_sum   Mo16
_cell_volume   192.81947745
_cell_formula_units_Z   16
loop_
 _symmetry_equiv_pos_site_id
 _symmetry_equiv_pos_as_xyz
  1  'x, y, z'
loop_
 _atom_site_type_symbol
 _atom_site_label
 _atom_site_symmetry_multiplicity
 _atom_site_fract_x
 _atom_site_fract_y
 _atom_site_fract_z
 _atom_site_occupancy
  Mo  Mo0  1  0.00970764  0.01787460  3.62462000  1
  Mo  Mo1  1  1.80628000  1.80655000  3.62138000  1
  Mo  Mo2  1  1.81618000  7.23631000  1.84197000  1
  Mo  Mo3  1  0.03389100  1.80853000  1.77780000  1
  Mo  Mo4  1  3.66744000  -0.03458190  0.02204290  1
  Mo  Mo5  1  5.45097000  1.85689000  3.58257000  1
  Mo  Mo6  1  5.47096000  0.06897560  1.80857000  1
  Mo  Mo7  1  3.61427000  1.83485000  1.76847000  1
  Mo  Mo8  1  -0.01821310  3.65447000  0.02385560  1
  Mo  Mo9  1  1.80635000  5.48969000  0.06051430  1
  Mo  Mo10  1  1.83998000  3.60612000  1.83128000  1
  Mo  Mo11  1  7.23390000  5.42859000  1.86488000  1
  Mo  Mo12  1  3.63461000  3.68382000  0.00889750  1
  Mo  Mo13  1  5.45975000  5.46508000  0.01342120  1
  Mo  Mo14  1  5.45507000  3.58806000  1.79781000  1
  Mo  Mo15  1  3.66405000  5.43396000  1.82450000  1
