# generated using pymatgen
data_Mo
_symmetry_space_group_name_H-M   'P 1'
_cell_length_a   7.27880859
_cell_length_b   7.27880859
_cell_length_c   3.63940430
_cell_angle_alpha   90.00000000
_cell_angle_beta   90.00000000
_cell_angle_gamma   90.00000000
_symmetry_Int_Tables_number   1
_chemical_formula_structural   Mo
_chemical_formula_sum   Mo16
_cell_volume   192.81947745
_cell_formula_units_Z   16
loop_
 _symmetry_equiv_pos_site_id
 _symmetry_equiv_pos_as_xyz
  1  'x, y, z'
loop_
 _atom_site_type_symbol
 _atom_site_label
 _atom_site_symmetry_multiplicity
 _atom_site_fract_x
 _atom_site_fract_y
 _atom_site_fract_z
 _atom_site_occupancy
  Mo  Mo0  1  0.00978111  -0.01794500  3.73436000  1
  Mo  Mo1  1  1.82026000  1.78103000  3.61539000  1
  Mo  Mo2  1  1.79714000  7.26718000  1.87064000  1
  Mo  Mo3  1  0.00647454  1.84178000  1.84108000  1
  Mo  Mo4  1  3.65609000  -0.00437932  -0.00873566  1
  Mo  Mo5  1  5.45353000  1.83227000  3.59610000  1
  Mo  Mo6  1  5.44874000  0.00499670  1.83156000  1
  Mo  Mo7  1  3.60821000  1.83983000  1.76818000  1
  Mo  Mo8  1  -0.00840014  3.67086000  -0.02347700  1
  Mo  Mo9  1  1.83495000  5.49583000  0.02379760  1
  Mo  Mo10  1  1.83511000  3.65963000  1.79073000  1
  Mo  Mo11  1  7.28044000  5.39650000  1.82176000  1
  Mo  Mo12  1  3.61899000  3.62699000  -0.04629900  1
  Mo  Mo13  1  5.47311000  5.45158000  0.03818690  1
  Mo  Mo14  1  5.45880000  3.61912000  1.81455000  1
  Mo  Mo15  1  3.65196000  5.47991000  1.80477000  1
