# generated using pymatgen
data_Mo
_symmetry_space_group_name_H-M   'P 1'
_cell_length_a   7.27880859
_cell_length_b   7.27880859
_cell_length_c   3.63940430
_cell_angle_alpha   90.00000000
_cell_angle_beta   90.00000000
_cell_angle_gamma   90.00000000
_symmetry_Int_Tables_number   1
_chemical_formula_structural   Mo
_chemical_formula_sum   Mo16
_cell_volume   192.81947745
_cell_formula_units_Z   16
loop_
 _symmetry_equiv_pos_site_id
 _symmetry_equiv_pos_as_xyz
  1  'x, y, z'
loop_
 _atom_site_type_symbol
 _atom_site_label
 _atom_site_symmetry_multiplicity
 _atom_site_fract_x
 _atom_site_fract_y
 _atom_site_fract_z
 _atom_site_occupancy
  Mo  Mo0  1  -0.01618790  0.01767290  3.62391000  1
  Mo  Mo1  1  1.82876000  1.77986000  3.66193000  1
  Mo  Mo2  1  1.81250000  7.25666000  1.79084000  1
  Mo  Mo3  1  0.02092250  1.83470000  1.74602000  1
  Mo  Mo4  1  3.63151000  -0.00097083  0.00897497  1
  Mo  Mo5  1  5.45759000  1.84601000  3.55306000  1
  Mo  Mo6  1  5.46928000  0.04600160  1.80793000  1
  Mo  Mo7  1  3.61500000  1.82778000  1.82895000  1
  Mo  Mo8  1  0.01713710  3.57978000  -0.00352452  1
  Mo  Mo9  1  1.82294000  5.42383000  0.00662393  1
  Mo  Mo10  1  1.79954000  3.68500000  1.86320000  1
  Mo  Mo11  1  7.25254000  5.47168000  1.86143000  1
  Mo  Mo12  1  3.63130000  3.64118000  -0.00739365  1
  Mo  Mo13  1  5.46124000  5.43933000  0.07397790  1
  Mo  Mo14  1  5.44255000  3.62599000  1.78849000  1
  Mo  Mo15  1  3.69856000  5.47069000  1.86816000  1
