# generated using pymatgen
data_Mo
_symmetry_space_group_name_H-M   'P 1'
_cell_length_a   7.27880859
_cell_length_b   7.27880859
_cell_length_c   3.63940430
_cell_angle_alpha   90.00000000
_cell_angle_beta   90.00000000
_cell_angle_gamma   90.00000000
_symmetry_Int_Tables_number   1
_chemical_formula_structural   Mo
_chemical_formula_sum   Mo16
_cell_volume   192.81947745
_cell_formula_units_Z   16
loop_
 _symmetry_equiv_pos_site_id
 _symmetry_equiv_pos_as_xyz
  1  'x, y, z'
loop_
 _atom_site_type_symbol
 _atom_site_label
 _atom_site_symmetry_multiplicity
 _atom_site_fract_x
 _atom_site_fract_y
 _atom_site_fract_z
 _atom_site_occupancy
  Mo  Mo0  1  -0.01935970  -0.03338470  3.63992000  1
  Mo  Mo1  1  1.80160000  1.77690000  3.69504000  1
  Mo  Mo2  1  1.83439000  7.35505000  1.85418000  1
  Mo  Mo3  1  -0.02554670  1.84825000  1.86942000  1
  Mo  Mo4  1  3.61531000  -0.05123840  0.04648240  1
  Mo  Mo5  1  5.46754000  1.82256000  3.64241000  1
  Mo  Mo6  1  5.47765000  0.00625532  1.81382000  1
  Mo  Mo7  1  3.68305000  1.82675000  1.83963000  1
  Mo  Mo8  1  0.02087290  3.66645000  -0.03270610  1
  Mo  Mo9  1  1.84672000  5.47989000  -0.06404870  1
  Mo  Mo10  1  1.82899000  3.59645000  1.73909000  1
  Mo  Mo11  1  7.30311000  5.44692000  1.75575000  1
  Mo  Mo12  1  3.60215000  3.63640000  0.01586410  1
  Mo  Mo13  1  5.42442000  5.44927000  0.01307770  1
  Mo  Mo14  1  5.49184000  3.65501000  1.79668000  1
  Mo  Mo15  1  3.59245000  5.46367000  1.84800000  1
