# generated using pymatgen
data_Mo
_symmetry_space_group_name_H-M   'P 1'
_cell_length_a   7.27880859
_cell_length_b   7.27880859
_cell_length_c   3.63940430
_cell_angle_alpha   90.00000000
_cell_angle_beta   90.00000000
_cell_angle_gamma   90.00000000
_symmetry_Int_Tables_number   1
_chemical_formula_structural   Mo
_chemical_formula_sum   Mo16
_cell_volume   192.81947745
_cell_formula_units_Z   16
loop_
 _symmetry_equiv_pos_site_id
 _symmetry_equiv_pos_as_xyz
  1  'x, y, z'
loop_
 _atom_site_type_symbol
 _atom_site_label
 _atom_site_symmetry_multiplicity
 _atom_site_fract_x
 _atom_site_fract_y
 _atom_site_fract_z
 _atom_site_occupancy
  Mo  Mo0  1  -0.01536500  -0.01823680  3.66420000  1
  Mo  Mo1  1  1.79511000  1.78459000  3.71206000  1
  Mo  Mo2  1  1.83353000  7.28163000  1.85745000  1
  Mo  Mo3  1  -0.00118613  1.83062000  1.87936000  1
  Mo  Mo4  1  3.63345000  0.01490130  -0.00968939  1
  Mo  Mo5  1  5.46344000  1.85640000  3.64265000  1
  Mo  Mo6  1  5.45395000  -0.00339102  1.77299000  1
  Mo  Mo7  1  3.65405000  1.82372000  1.81978000  1
  Mo  Mo8  1  0.01503580  3.59271000  0.02451900  1
  Mo  Mo9  1  1.84239000  5.45332000  -0.04290460  1
  Mo  Mo10  1  1.81643000  3.65069000  1.79146000  1
  Mo  Mo11  1  7.30190000  5.47760000  1.77916000  1
  Mo  Mo12  1  3.59638000  3.63886000  -0.03790540  1
  Mo  Mo13  1  5.45747000  5.39485000  -0.02982840  1
  Mo  Mo14  1  5.46541000  3.67365000  1.83767000  1
  Mo  Mo15  1  3.63319000  5.49326000  1.81165000  1
