# generated using pymatgen
data_Mo
_symmetry_space_group_name_H-M   'P 1'
_cell_length_a   7.27880859
_cell_length_b   7.27880859
_cell_length_c   3.63940430
_cell_angle_alpha   90.00000000
_cell_angle_beta   90.00000000
_cell_angle_gamma   90.00000000
_symmetry_Int_Tables_number   1
_chemical_formula_structural   Mo
_chemical_formula_sum   Mo16
_cell_volume   192.81947745
_cell_formula_units_Z   16
loop_
 _symmetry_equiv_pos_site_id
 _symmetry_equiv_pos_as_xyz
  1  'x, y, z'
loop_
 _atom_site_type_symbol
 _atom_site_label
 _atom_site_symmetry_multiplicity
 _atom_site_fract_x
 _atom_site_fract_y
 _atom_site_fract_z
 _atom_site_occupancy
  Mo  Mo0  1  -0.04161280  -0.02743980  3.64973000  1
  Mo  Mo1  1  1.82430000  1.77393000  3.60891000  1
  Mo  Mo2  1  1.81103000  7.30046000  1.74466000  1
  Mo  Mo3  1  0.00494825  1.84625000  1.80016000  1
  Mo  Mo4  1  3.61015000  0.00692613  -0.05096960  1
  Mo  Mo5  1  5.44146000  1.81288000  3.64514000  1
  Mo  Mo6  1  5.46397000  -0.00619930  1.83919000  1
  Mo  Mo7  1  3.64846000  1.85461000  1.82971000  1
  Mo  Mo8  1  0.03441450  3.63675000  0.04667620  1
  Mo  Mo9  1  1.83286000  5.46662000  0.01352960  1
  Mo  Mo10  1  1.84331000  3.64616000  1.87425000  1
  Mo  Mo11  1  7.29439000  5.48079000  1.87600000  1
  Mo  Mo12  1  3.59885000  3.62052000  -0.00720226  1
  Mo  Mo13  1  5.46316000  5.43243000  -0.02081300  1
  Mo  Mo14  1  5.47514000  3.66818000  1.81610000  1
  Mo  Mo15  1  3.64036000  5.43233000  1.80751000  1
