# generated using pymatgen
data_Mo
_symmetry_space_group_name_H-M   'P 1'
_cell_length_a   7.27880859
_cell_length_b   7.27880859
_cell_length_c   3.63940430
_cell_angle_alpha   90.00000000
_cell_angle_beta   90.00000000
_cell_angle_gamma   90.00000000
_symmetry_Int_Tables_number   1
_chemical_formula_structural   Mo
_chemical_formula_sum   Mo16
_cell_volume   192.81947745
_cell_formula_units_Z   16
loop_
 _symmetry_equiv_pos_site_id
 _symmetry_equiv_pos_as_xyz
  1  'x, y, z'
loop_
 _atom_site_type_symbol
 _atom_site_label
 _atom_site_symmetry_multiplicity
 _atom_site_fract_x
 _atom_site_fract_y
 _atom_site_fract_z
 _atom_site_occupancy
  Mo  Mo0  1  0.04382270  0.02492170  3.61241000  1
  Mo  Mo1  1  1.82505000  1.82897000  3.66317000  1
  Mo  Mo2  1  1.78239000  7.25385000  1.80821000  1
  Mo  Mo3  1  0.02053490  1.78818000  1.81430000  1
  Mo  Mo4  1  3.64177000  -0.01648220  -0.01696990  1
  Mo  Mo5  1  5.50039000  1.82386000  3.64488000  1
  Mo  Mo6  1  5.43541000  0.00868118  1.75592000  1
  Mo  Mo7  1  3.64513000  1.79673000  1.86294000  1
  Mo  Mo8  1  0.00628941  3.62821000  -0.01041300  1
  Mo  Mo9  1  1.81298000  5.41719000  -0.01646380  1
  Mo  Mo10  1  1.83046000  3.68760000  1.82874000  1
  Mo  Mo11  1  7.24831000  5.47684000  1.74837000  1
  Mo  Mo12  1  3.62440000  3.61738000  0.05464670  1
  Mo  Mo13  1  5.45253000  5.43975000  0.01659700  1
  Mo  Mo14  1  5.43644000  3.64300000  1.89493000  1
  Mo  Mo15  1  3.63927000  5.52651000  1.81133000  1
