# generated using pymatgen
data_Mo
_symmetry_space_group_name_H-M   'P 1'
_cell_length_a   7.27880859
_cell_length_b   7.27880859
_cell_length_c   3.63940430
_cell_angle_alpha   90.00000000
_cell_angle_beta   90.00000000
_cell_angle_gamma   90.00000000
_symmetry_Int_Tables_number   1
_chemical_formula_structural   Mo
_chemical_formula_sum   Mo16
_cell_volume   192.81947745
_cell_formula_units_Z   16
loop_
 _symmetry_equiv_pos_site_id
 _symmetry_equiv_pos_as_xyz
  1  'x, y, z'
loop_
 _atom_site_type_symbol
 _atom_site_label
 _atom_site_symmetry_multiplicity
 _atom_site_fract_x
 _atom_site_fract_y
 _atom_site_fract_z
 _atom_site_occupancy
  Mo  Mo0  1  -0.01379250  0.02981250  3.59760000  1
  Mo  Mo1  1  1.80859000  1.80427000  3.64163000  1
  Mo  Mo2  1  1.82393000  7.25508000  1.80578000  1
  Mo  Mo3  1  0.01885380  1.78576000  1.80118000  1
  Mo  Mo4  1  3.64871000  0.02006360  0.02723620  1
  Mo  Mo5  1  5.45862000  1.89173000  3.61513000  1
  Mo  Mo6  1  5.46335000  -0.01354430  1.78100000  1
  Mo  Mo7  1  3.64270000  1.76739000  1.88265000  1
  Mo  Mo8  1  0.02490250  3.65965000  0.04005800  1
  Mo  Mo9  1  1.77279000  5.47853000  -0.02589930  1
  Mo  Mo10  1  1.85229000  3.66112000  1.83125000  1
  Mo  Mo11  1  7.25841000  5.45561000  1.80011000  1
  Mo  Mo12  1  3.60113000  3.60241000  -0.00855327  1
  Mo  Mo13  1  5.44657000  5.41837000  0.03683510  1
  Mo  Mo14  1  5.46055000  3.63735000  1.86040000  1
  Mo  Mo15  1  3.67758000  5.49160000  1.78617000  1
