# generated using pymatgen
data_Mo
_symmetry_space_group_name_H-M   'P 1'
_cell_length_a   7.27880859
_cell_length_b   7.27880859
_cell_length_c   3.63940430
_cell_angle_alpha   90.00000000
_cell_angle_beta   90.00000000
_cell_angle_gamma   90.00000000
_symmetry_Int_Tables_number   1
_chemical_formula_structural   Mo
_chemical_formula_sum   Mo16
_cell_volume   192.81947745
_cell_formula_units_Z   16
loop_
 _symmetry_equiv_pos_site_id
 _symmetry_equiv_pos_as_xyz
  1  'x, y, z'
loop_
 _atom_site_type_symbol
 _atom_site_label
 _atom_site_symmetry_multiplicity
 _atom_site_fract_x
 _atom_site_fract_y
 _atom_site_fract_z
 _atom_site_occupancy
  Mo  Mo0  1  0.03041820  -0.00409341  3.56592000  1
  Mo  Mo1  1  1.80613000  1.86867000  3.62180000  1
  Mo  Mo2  1  1.84846000  7.24520000  1.79358000  1
  Mo  Mo3  1  0.02725870  1.82634000  1.77360000  1
  Mo  Mo4  1  3.59662000  0.03586190  0.04741200  1
  Mo  Mo5  1  5.45000000  1.81969000  3.63719000  1
  Mo  Mo6  1  5.47183000  0.01662840  1.82668000  1
  Mo  Mo7  1  3.66619000  1.78958000  1.85828000  1
  Mo  Mo8  1  -0.04065710  3.62934000  0.02335760  1
  Mo  Mo9  1  1.77619000  5.43838000  -0.01649720  1
  Mo  Mo10  1  1.82389000  3.64260000  1.84590000  1
  Mo  Mo11  1  7.24718000  5.44458000  1.82584000  1
  Mo  Mo12  1  3.68319000  3.65603000  0.03844090  1
  Mo  Mo13  1  5.42560000  5.48010000  -0.01746660  1
  Mo  Mo14  1  5.46913000  3.60724000  1.81500000  1
  Mo  Mo15  1  3.66376000  5.44906000  1.83356000  1
