# generated using pymatgen
data_Mo
_symmetry_space_group_name_H-M   'P 1'
_cell_length_a   7.27808089
_cell_length_b   7.27808089
_cell_length_c   3.63904047
_cell_angle_alpha   90.00000000
_cell_angle_beta   90.00000000
_cell_angle_gamma   90.00000000
_symmetry_Int_Tables_number   1
_chemical_formula_structural   Mo
_chemical_formula_sum   Mo16
_cell_volume   192.76165285
_cell_formula_units_Z   16
loop_
 _symmetry_equiv_pos_site_id
 _symmetry_equiv_pos_as_xyz
  1  'x, y, z'
loop_
 _atom_site_type_symbol
 _atom_site_label
 _atom_site_symmetry_multiplicity
 _atom_site_fract_x
 _atom_site_fract_y
 _atom_site_fract_z
 _atom_site_occupancy
  Mo  Mo0  1  -0.00384459  7.28624000  -0.01635430  1
  Mo  Mo1  1  1.80796000  1.81409000  0.00650312  1
  Mo  Mo2  1  1.83617000  7.27986000  1.83140000  1
  Mo  Mo3  1  7.26702000  1.82479000  1.80481000  1
  Mo  Mo4  1  3.64484000  7.28966000  3.63620000  1
  Mo  Mo5  1  5.46979000  1.80606000  -0.00043116  1
  Mo  Mo6  1  5.46396000  -0.00105482  1.81640000  1
  Mo  Mo7  1  3.63646000  1.82402000  1.81319000  1
  Mo  Mo8  1  7.27647000  3.63149000  3.64694000  1
  Mo  Mo9  1  1.81308000  5.45800000  3.63680000  1
  Mo  Mo10  1  1.81745000  3.64097000  1.80992000  1
  Mo  Mo11  1  7.27782000  5.47142000  1.81669000  1
  Mo  Mo12  1  3.65082000  3.63916000  0.00872707  1
  Mo  Mo13  1  5.45819000  5.44570000  3.64507000  1
  Mo  Mo14  1  5.45199000  3.62914000  1.82018000  1
  Mo  Mo15  1  3.63391000  5.46255000  1.83596000  1
