# generated using pymatgen
data_Mo
_symmetry_space_group_name_H-M   'P 1'
_cell_length_a   7.27880859
_cell_length_b   7.27880859
_cell_length_c   3.63940430
_cell_angle_alpha   90.00000000
_cell_angle_beta   90.00000000
_cell_angle_gamma   90.00000000
_symmetry_Int_Tables_number   1
_chemical_formula_structural   Mo
_chemical_formula_sum   Mo16
_cell_volume   192.81947745
_cell_formula_units_Z   16
loop_
 _symmetry_equiv_pos_site_id
 _symmetry_equiv_pos_as_xyz
  1  'x, y, z'
loop_
 _atom_site_type_symbol
 _atom_site_label
 _atom_site_symmetry_multiplicity
 _atom_site_fract_x
 _atom_site_fract_y
 _atom_site_fract_z
 _atom_site_occupancy
  Mo  Mo0  1  -0.04173700  0.00507070  3.61907000  1
  Mo  Mo1  1  1.83444000  1.77352000  3.62951000  1
  Mo  Mo2  1  1.79370000  7.28437000  1.79802000  1
  Mo  Mo3  1  0.02888530  1.86269000  1.84179000  1
  Mo  Mo4  1  3.68840000  -0.02213890  -0.02208390  1
  Mo  Mo5  1  5.44777000  1.83857000  3.63916000  1
  Mo  Mo6  1  5.47678000  0.01722820  1.79099000  1
  Mo  Mo7  1  3.61068000  1.83431000  1.86707000  1
  Mo  Mo8  1  -0.01915210  3.69276000  -0.02356830  1
  Mo  Mo9  1  1.82980000  5.51299000  -0.01809720  1
  Mo  Mo10  1  1.84573000  3.61243000  1.87403000  1
  Mo  Mo11  1  7.27500000  5.40525000  1.71583000  1
  Mo  Mo12  1  3.62126000  3.62438000  0.07345600  1
  Mo  Mo13  1  5.44094000  5.47908000  -0.01943830  1
  Mo  Mo14  1  5.46993000  3.59921000  1.87397000  1
  Mo  Mo15  1  3.64275000  5.42547000  1.83289000  1
