# generated using pymatgen
data_Mo
_symmetry_space_group_name_H-M   'P 1'
_cell_length_a   7.27880859
_cell_length_b   7.27880859
_cell_length_c   3.63940430
_cell_angle_alpha   90.00000000
_cell_angle_beta   90.00000000
_cell_angle_gamma   90.00000000
_symmetry_Int_Tables_number   1
_chemical_formula_structural   Mo
_chemical_formula_sum   Mo16
_cell_volume   192.81947745
_cell_formula_units_Z   16
loop_
 _symmetry_equiv_pos_site_id
 _symmetry_equiv_pos_as_xyz
  1  'x, y, z'
loop_
 _atom_site_type_symbol
 _atom_site_label
 _atom_site_symmetry_multiplicity
 _atom_site_fract_x
 _atom_site_fract_y
 _atom_site_fract_z
 _atom_site_occupancy
  Mo  Mo0  1  0.01649160  0.00002590  3.66530000  1
  Mo  Mo1  1  1.82787000  1.83641000  3.67114000  1
  Mo  Mo2  1  1.80083000  7.26330000  1.85749000  1
  Mo  Mo3  1  -0.03716020  1.74960000  1.87614000  1
  Mo  Mo4  1  3.66409000  0.02628270  -0.00979540  1
  Mo  Mo5  1  5.47101000  1.86465000  3.66950000  1
  Mo  Mo6  1  5.44707000  -0.01675230  1.83923000  1
  Mo  Mo7  1  3.62509000  1.80905000  1.81160000  1
  Mo  Mo8  1  0.01648350  3.62698000  -0.05150090  1
  Mo  Mo9  1  1.83590000  5.44608000  0.00246087  1
  Mo  Mo10  1  1.82804000  3.63883000  1.83136000  1
  Mo  Mo11  1  7.24961000  5.48615000  1.78654000  1
  Mo  Mo12  1  3.64123000  3.63098000  -0.02009870  1
  Mo  Mo13  1  5.46445000  5.42518000  -0.03033760  1
  Mo  Mo14  1  5.46207000  3.66686000  1.79264000  1
  Mo  Mo15  1  3.63213000  5.49156000  1.78093000  1
