# generated using pymatgen
data_Mo
_symmetry_space_group_name_H-M   'P 1'
_cell_length_a   7.27880859
_cell_length_b   7.27880859
_cell_length_c   3.63940430
_cell_angle_alpha   90.00000000
_cell_angle_beta   90.00000000
_cell_angle_gamma   90.00000000
_symmetry_Int_Tables_number   1
_chemical_formula_structural   Mo
_chemical_formula_sum   Mo16
_cell_volume   192.81947745
_cell_formula_units_Z   16
loop_
 _symmetry_equiv_pos_site_id
 _symmetry_equiv_pos_as_xyz
  1  'x, y, z'
loop_
 _atom_site_type_symbol
 _atom_site_label
 _atom_site_symmetry_multiplicity
 _atom_site_fract_x
 _atom_site_fract_y
 _atom_site_fract_z
 _atom_site_occupancy
  Mo  Mo0  1  -0.05612670  -0.02844600  3.64358000  1
  Mo  Mo1  1  1.85071000  1.79225000  3.69171000  1
  Mo  Mo2  1  1.81270000  7.33105000  1.79913000  1
  Mo  Mo3  1  -0.03703720  1.85036000  1.81369000  1
  Mo  Mo4  1  3.64444000  -0.05969630  0.01543800  1
  Mo  Mo5  1  5.45829000  1.81764000  3.61125000  1
  Mo  Mo6  1  5.48333000  0.02113620  1.82614000  1
  Mo  Mo7  1  3.65301000  1.81728000  1.86315000  1
  Mo  Mo8  1  0.03418790  3.66502000  -0.02568750  1
  Mo  Mo9  1  1.81504000  5.47109000  -0.03552440  1
  Mo  Mo10  1  1.81028000  3.57818000  1.83841000  1
  Mo  Mo11  1  7.28210000  5.45213000  1.80362000  1
  Mo  Mo12  1  3.62392000  3.68135000  0.01980500  1
  Mo  Mo13  1  5.45306000  5.44944000  0.01530970  1
  Mo  Mo14  1  5.47633000  3.63725000  1.79353000  1
  Mo  Mo15  1  3.64096000  5.46916000  1.79908000  1
