# generated using pymatgen
data_Mo
_symmetry_space_group_name_H-M   'P 1'
_cell_length_a   7.27880859
_cell_length_b   7.27880859
_cell_length_c   3.63940430
_cell_angle_alpha   90.00000000
_cell_angle_beta   90.00000000
_cell_angle_gamma   90.00000000
_symmetry_Int_Tables_number   1
_chemical_formula_structural   Mo
_chemical_formula_sum   Mo16
_cell_volume   192.81947745
_cell_formula_units_Z   16
loop_
 _symmetry_equiv_pos_site_id
 _symmetry_equiv_pos_as_xyz
  1  'x, y, z'
loop_
 _atom_site_type_symbol
 _atom_site_label
 _atom_site_symmetry_multiplicity
 _atom_site_fract_x
 _atom_site_fract_y
 _atom_site_fract_z
 _atom_site_occupancy
  Mo  Mo0  1  -0.02286530  -0.03242510  3.69175000  1
  Mo  Mo1  1  1.80198000  1.81775000  3.60613000  1
  Mo  Mo2  1  1.82495000  7.26071000  1.84614000  1
  Mo  Mo3  1  0.01122920  1.84459000  1.83082000  1
  Mo  Mo4  1  3.62245000  0.01620030  -0.02411000  1
  Mo  Mo5  1  5.42815000  1.83625000  3.64996000  1
  Mo  Mo6  1  5.49439000  0.00259604  1.85724000  1
  Mo  Mo7  1  3.59869000  1.78103000  1.76841000  1
  Mo  Mo8  1  0.01976740  3.65181000  -0.05229770  1
  Mo  Mo9  1  1.82979000  5.47678000  0.04097710  1
  Mo  Mo10  1  1.82218000  3.64518000  1.79654000  1
  Mo  Mo11  1  7.28653000  5.46489000  1.86731000  1
  Mo  Mo12  1  3.64383000  3.64482000  0.00082500  1
  Mo  Mo13  1  5.46790000  5.43680000  -0.03524230  1
  Mo  Mo14  1  5.44945000  3.63668000  1.76416000  1
  Mo  Mo15  1  3.66678000  5.46153000  1.86397000  1
