# generated using pymatgen
data_Mo
_symmetry_space_group_name_H-M   'P 1'
_cell_length_a   7.27880859
_cell_length_b   7.27880859
_cell_length_c   3.63940430
_cell_angle_alpha   90.00000000
_cell_angle_beta   90.00000000
_cell_angle_gamma   90.00000000
_symmetry_Int_Tables_number   1
_chemical_formula_structural   Mo
_chemical_formula_sum   Mo16
_cell_volume   192.81947745
_cell_formula_units_Z   16
loop_
 _symmetry_equiv_pos_site_id
 _symmetry_equiv_pos_as_xyz
  1  'x, y, z'
loop_
 _atom_site_type_symbol
 _atom_site_label
 _atom_site_symmetry_multiplicity
 _atom_site_fract_x
 _atom_site_fract_y
 _atom_site_fract_z
 _atom_site_occupancy
  Mo  Mo0  1  0.02219710  -0.04387930  3.66396000  1
  Mo  Mo1  1  1.80308000  1.79511000  3.65738000  1
  Mo  Mo2  1  1.79935000  7.29757000  1.81448000  1
  Mo  Mo3  1  -0.00089638  1.87794000  1.85911000  1
  Mo  Mo4  1  3.64335000  -0.01458860  -0.01081490  1
  Mo  Mo5  1  5.45052000  1.75555000  3.67286000  1
  Mo  Mo6  1  5.41806000  0.03445820  1.86993000  1
  Mo  Mo7  1  3.61461000  1.86883000  1.80263000  1
  Mo  Mo8  1  0.00153003  3.63378000  -0.01503170  1
  Mo  Mo9  1  1.81194000  5.45726000  0.00972232  1
  Mo  Mo10  1  1.83373000  3.63797000  1.86410000  1
  Mo  Mo11  1  7.28995000  5.43548000  1.83033000  1
  Mo  Mo12  1  3.68058000  3.63308000  -0.03720800  1
  Mo  Mo13  1  5.47281000  5.49611000  -0.02908420  1
  Mo  Mo14  1  5.47867000  3.64101000  1.75811000  1
  Mo  Mo15  1  3.62570000  5.43950000  1.76212000  1
