# generated using pymatgen
data_Mo
_symmetry_space_group_name_H-M   'P 1'
_cell_length_a   7.27880859
_cell_length_b   7.27880859
_cell_length_c   3.63940430
_cell_angle_alpha   90.00000000
_cell_angle_beta   90.00000000
_cell_angle_gamma   90.00000000
_symmetry_Int_Tables_number   1
_chemical_formula_structural   Mo
_chemical_formula_sum   Mo16
_cell_volume   192.81947745
_cell_formula_units_Z   16
loop_
 _symmetry_equiv_pos_site_id
 _symmetry_equiv_pos_as_xyz
  1  'x, y, z'
loop_
 _atom_site_type_symbol
 _atom_site_label
 _atom_site_symmetry_multiplicity
 _atom_site_fract_x
 _atom_site_fract_y
 _atom_site_fract_z
 _atom_site_occupancy
  Mo  Mo0  1  -0.02974360  0.00247795  3.60652000  1
  Mo  Mo1  1  1.83802000  1.77767000  3.59240000  1
  Mo  Mo2  1  1.81963000  7.30453000  1.80657000  1
  Mo  Mo3  1  -0.02012060  1.83280000  1.77827000  1
  Mo  Mo4  1  3.66350000  -0.00496613  0.05702420  1
  Mo  Mo5  1  5.46535000  1.80896000  3.63522000  1
  Mo  Mo6  1  5.49092000  -0.01231950  1.88070000  1
  Mo  Mo7  1  3.64736000  1.84812000  1.85906000  1
  Mo  Mo8  1  0.03661060  3.69097000  -0.03139880  1
  Mo  Mo9  1  1.81094000  5.53060000  0.00216332  1
  Mo  Mo10  1  1.81890000  3.60779000  1.82742000  1
  Mo  Mo11  1  7.27051000  5.41839000  1.84165000  1
  Mo  Mo12  1  3.60404000  3.61946000  0.00782639  1
  Mo  Mo13  1  5.44395000  5.48490000  0.01175580  1
  Mo  Mo14  1  5.46577000  3.63461000  1.78296000  1
  Mo  Mo15  1  3.61955000  5.40120000  1.81446000  1
