# generated using pymatgen
data_Mo
_symmetry_space_group_name_H-M   'P 1'
_cell_length_a   7.27880859
_cell_length_b   7.27880859
_cell_length_c   3.63940430
_cell_angle_alpha   90.00000000
_cell_angle_beta   90.00000000
_cell_angle_gamma   90.00000000
_symmetry_Int_Tables_number   1
_chemical_formula_structural   Mo
_chemical_formula_sum   Mo16
_cell_volume   192.81947745
_cell_formula_units_Z   16
loop_
 _symmetry_equiv_pos_site_id
 _symmetry_equiv_pos_as_xyz
  1  'x, y, z'
loop_
 _atom_site_type_symbol
 _atom_site_label
 _atom_site_symmetry_multiplicity
 _atom_site_fract_x
 _atom_site_fract_y
 _atom_site_fract_z
 _atom_site_occupancy
  Mo  Mo0  1  0.02898220  -0.00945255  3.58572000  1
  Mo  Mo1  1  1.86581000  1.82534000  3.67905000  1
  Mo  Mo2  1  1.80840000  7.28218000  1.79508000  1
  Mo  Mo3  1  0.02476930  1.84192000  1.79069000  1
  Mo  Mo4  1  3.64148000  -0.00861668  -0.01328620  1
  Mo  Mo5  1  5.48734000  1.76693000  3.64914000  1
  Mo  Mo6  1  5.44876000  0.03059150  1.76168000  1
  Mo  Mo7  1  3.62198000  1.86046000  1.87542000  1
  Mo  Mo8  1  -0.06187460  3.65187000  0.01351520  1
  Mo  Mo9  1  1.81960000  5.42456000  -0.02690510  1
  Mo  Mo10  1  1.79676000  3.65828000  1.81663000  1
  Mo  Mo11  1  7.24082000  5.41902000  1.79086000  1
  Mo  Mo12  1  3.67840000  3.61756000  0.02658030  1
  Mo  Mo13  1  5.47282000  5.49686000  0.03506730  1
  Mo  Mo14  1  5.43822000  3.61986000  1.89177000  1
  Mo  Mo15  1  3.63291000  5.46784000  1.80160000  1
