# generated using pymatgen
data_Mo
_symmetry_space_group_name_H-M   'P 1'
_cell_length_a   7.27880859
_cell_length_b   7.27880859
_cell_length_c   3.63940430
_cell_angle_alpha   90.00000000
_cell_angle_beta   90.00000000
_cell_angle_gamma   90.00000000
_symmetry_Int_Tables_number   1
_chemical_formula_structural   Mo
_chemical_formula_sum   Mo16
_cell_volume   192.81947745
_cell_formula_units_Z   16
loop_
 _symmetry_equiv_pos_site_id
 _symmetry_equiv_pos_as_xyz
  1  'x, y, z'
loop_
 _atom_site_type_symbol
 _atom_site_label
 _atom_site_symmetry_multiplicity
 _atom_site_fract_x
 _atom_site_fract_y
 _atom_site_fract_z
 _atom_site_occupancy
  Mo  Mo0  1  0.05162440  -0.00930502  3.62233000  1
  Mo  Mo1  1  1.79004000  1.80580000  3.67286000  1
  Mo  Mo2  1  1.81994000  7.28700000  1.84104000  1
  Mo  Mo3  1  0.01621240  1.86763000  1.87228000  1
  Mo  Mo4  1  3.63366000  -0.03514160  -0.03274520  1
  Mo  Mo5  1  5.45629000  1.76733000  3.66146000  1
  Mo  Mo6  1  5.44043000  0.02476230  1.76209000  1
  Mo  Mo7  1  3.60634000  1.83573000  1.80987000  1
  Mo  Mo8  1  -0.03018790  3.62699000  0.02182740  1
  Mo  Mo9  1  1.82627000  5.45696000  -0.03811310  1
  Mo  Mo10  1  1.82351000  3.65954000  1.80363000  1
  Mo  Mo11  1  7.29100000  5.46847000  1.80825000  1
  Mo  Mo12  1  3.67671000  3.63532000  0.00564312  1
  Mo  Mo13  1  5.45200000  5.47571000  -0.00262568  1
  Mo  Mo14  1  5.46620000  3.64066000  1.88884000  1
  Mo  Mo15  1  3.62516000  5.43773000  1.77596000  1
