# generated using pymatgen
data_Mo
_symmetry_space_group_name_H-M   'P 1'
_cell_length_a   7.27880859
_cell_length_b   7.27880859
_cell_length_c   3.63940430
_cell_angle_alpha   90.00000000
_cell_angle_beta   90.00000000
_cell_angle_gamma   90.00000000
_symmetry_Int_Tables_number   1
_chemical_formula_structural   Mo
_chemical_formula_sum   Mo16
_cell_volume   192.81947745
_cell_formula_units_Z   16
loop_
 _symmetry_equiv_pos_site_id
 _symmetry_equiv_pos_as_xyz
  1  'x, y, z'
loop_
 _atom_site_type_symbol
 _atom_site_label
 _atom_site_symmetry_multiplicity
 _atom_site_fract_x
 _atom_site_fract_y
 _atom_site_fract_z
 _atom_site_occupancy
  Mo  Mo0  1  -0.04849530  -0.00118451  3.62967000  1
  Mo  Mo1  1  1.78341000  1.81311000  3.58834000  1
  Mo  Mo2  1  1.83421000  7.30601000  1.78008000  1
  Mo  Mo3  1  0.00163659  1.80053000  1.80147000  1
  Mo  Mo4  1  3.64541000  -0.02620870  0.02611570  1
  Mo  Mo5  1  5.45086000  1.88148000  3.65879000  1
  Mo  Mo6  1  5.45208000  -0.01021160  1.88396000  1
  Mo  Mo7  1  3.66303000  1.79746000  1.87627000  1
  Mo  Mo8  1  0.02800370  3.63856000  -0.01894040  1
  Mo  Mo9  1  1.80913000  5.44525000  -0.00827934  1
  Mo  Mo10  1  1.83003000  3.64787000  1.81065000  1
  Mo  Mo11  1  7.31782000  5.48296000  1.85496000  1
  Mo  Mo12  1  3.65678000  3.60653000  0.02317060  1
  Mo  Mo13  1  5.42764000  5.38959000  -0.00723085  1
  Mo  Mo14  1  5.47126000  3.66988000  1.76993000  1
  Mo  Mo15  1  3.62238000  5.50356000  1.80365000  1
