# generated using pymatgen
data_Mo
_symmetry_space_group_name_H-M   'P 1'
_cell_length_a   7.27808089
_cell_length_b   7.27808089
_cell_length_c   3.63904047
_cell_angle_alpha   90.00000000
_cell_angle_beta   90.00000000
_cell_angle_gamma   90.00000000
_symmetry_Int_Tables_number   1
_chemical_formula_structural   Mo
_chemical_formula_sum   Mo16
_cell_volume   192.76165285
_cell_formula_units_Z   16
loop_
 _symmetry_equiv_pos_site_id
 _symmetry_equiv_pos_as_xyz
  1  'x, y, z'
loop_
 _atom_site_type_symbol
 _atom_site_label
 _atom_site_symmetry_multiplicity
 _atom_site_fract_x
 _atom_site_fract_y
 _atom_site_fract_z
 _atom_site_occupancy
  Mo  Mo0  1  0.00099376  7.28978000  0.01255990  1
  Mo  Mo1  1  1.81667000  1.81838000  0.00090527  1
  Mo  Mo2  1  1.82142000  7.27166000  1.81390000  1
  Mo  Mo3  1  7.28131000  1.81304000  1.84109000  1
  Mo  Mo4  1  3.64236000  7.29068000  3.63366000  1
  Mo  Mo5  1  5.46256000  1.81889000  0.00472391  1
  Mo  Mo6  1  5.44741000  -0.01035530  1.82168000  1
  Mo  Mo7  1  3.64264000  1.82486000  1.82192000  1
  Mo  Mo8  1  7.27741000  3.64477000  3.62980000  1
  Mo  Mo9  1  1.81050000  5.45573000  3.64199000  1
  Mo  Mo10  1  1.82654000  3.63048000  1.82337000  1
  Mo  Mo11  1  7.27207000  5.46664000  1.81764000  1
  Mo  Mo12  1  3.64335000  3.62806000  -0.00942256  1
  Mo  Mo13  1  5.46432000  5.46150000  3.63393000  1
  Mo  Mo14  1  5.46177000  3.63647000  1.81785000  1
  Mo  Mo15  1  3.63076000  5.46150000  1.80642000  1
