# generated using pymatgen
data_Mo
_symmetry_space_group_name_H-M   'P 1'
_cell_length_a   7.27808089
_cell_length_b   7.27808089
_cell_length_c   3.63904047
_cell_angle_alpha   90.00000000
_cell_angle_beta   90.00000000
_cell_angle_gamma   90.00000000
_symmetry_Int_Tables_number   1
_chemical_formula_structural   Mo
_chemical_formula_sum   Mo16
_cell_volume   192.76165285
_cell_formula_units_Z   16
loop_
 _symmetry_equiv_pos_site_id
 _symmetry_equiv_pos_as_xyz
  1  'x, y, z'
loop_
 _atom_site_type_symbol
 _atom_site_label
 _atom_site_symmetry_multiplicity
 _atom_site_fract_x
 _atom_site_fract_y
 _atom_site_fract_z
 _atom_site_occupancy
  Mo  Mo0  1  -0.00299472  7.28637000  0.00681306  1
  Mo  Mo1  1  1.82839000  1.81372000  0.00639117  1
  Mo  Mo2  1  1.82314000  7.27376000  1.83060000  1
  Mo  Mo3  1  7.27954000  1.82390000  1.83288000  1
  Mo  Mo4  1  3.62565000  7.28820000  3.62126000  1
  Mo  Mo5  1  5.45518000  1.81475000  0.01097850  1
  Mo  Mo6  1  5.46604000  -0.00954896  1.82361000  1
  Mo  Mo7  1  3.63444000  1.81761000  1.81514000  1
  Mo  Mo8  1  7.29845000  3.64285000  3.64291000  1
  Mo  Mo9  1  1.81435000  5.45097000  3.63285000  1
  Mo  Mo10  1  1.81199000  3.62951000  1.81029000  1
  Mo  Mo11  1  7.27248000  5.46312000  1.81779000  1
  Mo  Mo12  1  3.64804000  3.64597000  -0.00268667  1
  Mo  Mo13  1  5.45219000  5.45947000  3.63541000  1
  Mo  Mo14  1  5.45438000  3.64417000  1.81033000  1
  Mo  Mo15  1  3.64084000  5.45725000  1.81743000  1
