# generated using pymatgen
data_Mo
_symmetry_space_group_name_H-M   'P 1'
_cell_length_a   7.27880859
_cell_length_b   7.27880859
_cell_length_c   3.63940430
_cell_angle_alpha   90.00000000
_cell_angle_beta   90.00000000
_cell_angle_gamma   90.00000000
_symmetry_Int_Tables_number   1
_chemical_formula_structural   Mo
_chemical_formula_sum   Mo16
_cell_volume   192.81947745
_cell_formula_units_Z   16
loop_
 _symmetry_equiv_pos_site_id
 _symmetry_equiv_pos_as_xyz
  1  'x, y, z'
loop_
 _atom_site_type_symbol
 _atom_site_label
 _atom_site_symmetry_multiplicity
 _atom_site_fract_x
 _atom_site_fract_y
 _atom_site_fract_z
 _atom_site_occupancy
  Mo  Mo0  1  0.04059110  0.00188360  3.59917000  1
  Mo  Mo1  1  1.81960000  1.79302000  3.60006000  1
  Mo  Mo2  1  1.81375000  7.30178000  1.77512000  1
  Mo  Mo3  1  -0.03558330  1.86035000  1.79527000  1
  Mo  Mo4  1  3.66813000  -0.02964360  -0.01475170  1
  Mo  Mo5  1  5.48219000  1.79833000  3.65526000  1
  Mo  Mo6  1  5.45496000  0.02212940  1.84015000  1
  Mo  Mo7  1  3.63762000  1.82893000  1.79487000  1
  Mo  Mo8  1  -0.01814340  3.63678000  -0.03327120  1
  Mo  Mo9  1  1.83912000  5.47487000  0.03760120  1
  Mo  Mo10  1  1.80736000  3.64457000  1.86112000  1
  Mo  Mo11  1  7.24216000  5.45336000  1.81373000  1
  Mo  Mo12  1  3.64310000  3.62896000  0.04219150  1
  Mo  Mo13  1  5.45382000  5.44963000  0.03345600  1
  Mo  Mo14  1  5.46964000  3.63212000  1.82803000  1
  Mo  Mo15  1  3.62686000  5.44813000  1.84459000  1
