# generated using pymatgen
data_Mo
_symmetry_space_group_name_H-M   'P 1'
_cell_length_a   7.27963737
_cell_length_b   7.27963737
_cell_length_c   3.63981867
_cell_angle_alpha   90.00000000
_cell_angle_beta   90.00000000
_cell_angle_gamma   90.00000000
_symmetry_Int_Tables_number   1
_chemical_formula_structural   Mo
_chemical_formula_sum   Mo16
_cell_volume   192.88534851
_cell_formula_units_Z   16
loop_
 _symmetry_equiv_pos_site_id
 _symmetry_equiv_pos_as_xyz
  1  'x, y, z'
loop_
 _atom_site_type_symbol
 _atom_site_label
 _atom_site_symmetry_multiplicity
 _atom_site_fract_x
 _atom_site_fract_y
 _atom_site_fract_z
 _atom_site_occupancy
  Mo  Mo0  1  -0.00611380  -0.04545920  -0.05646000  1
  Mo  Mo1  1  1.86534000  1.82920000  0.00790563  1
  Mo  Mo2  1  1.86711000  7.29920000  1.85163000  1
  Mo  Mo3  1  7.29759000  1.84880000  1.82523000  1
  Mo  Mo4  1  3.63624000  7.28686000  3.65432000  1
  Mo  Mo5  1  5.47184000  1.75295000  3.66832000  1
  Mo  Mo6  1  5.46515000  0.00883245  1.87919000  1
  Mo  Mo7  1  3.63663000  1.84284000  1.90548000  1
  Mo  Mo8  1  7.23235000  3.62427000  -0.02942840  1
  Mo  Mo9  1  1.81578000  5.46571000  -0.03439120  1
  Mo  Mo10  1  1.82520000  3.65900000  1.81263000  1
  Mo  Mo11  1  -0.00437757  5.45678000  1.74245000  1
  Mo  Mo12  1  3.62578000  3.62987000  0.06078990  1
  Mo  Mo13  1  5.38904000  5.45921000  3.61009000  1
  Mo  Mo14  1  5.47071000  3.63080000  1.82025000  1
  Mo  Mo15  1  3.63575000  5.47512000  1.75417000  1
