# generated using pymatgen
data_Mo
_symmetry_space_group_name_H-M   'P 1'
_cell_length_a   7.27963737
_cell_length_b   7.27963737
_cell_length_c   3.63981867
_cell_angle_alpha   90.00000000
_cell_angle_beta   90.00000000
_cell_angle_gamma   90.00000000
_symmetry_Int_Tables_number   1
_chemical_formula_structural   Mo
_chemical_formula_sum   Mo16
_cell_volume   192.88534851
_cell_formula_units_Z   16
loop_
 _symmetry_equiv_pos_site_id
 _symmetry_equiv_pos_as_xyz
  1  'x, y, z'
loop_
 _atom_site_type_symbol
 _atom_site_label
 _atom_site_symmetry_multiplicity
 _atom_site_fract_x
 _atom_site_fract_y
 _atom_site_fract_z
 _atom_site_occupancy
  Mo  Mo0  1  0.01829680  -0.02833400  -0.04463050  1
  Mo  Mo1  1  1.81826000  1.79818000  -0.02480900  1
  Mo  Mo2  1  1.83687000  7.29832000  1.84654000  1
  Mo  Mo3  1  7.27717000  1.81204000  1.85949000  1
  Mo  Mo4  1  3.63010000  7.25455000  3.60287000  1
  Mo  Mo5  1  5.48032000  1.76852000  3.60608000  1
  Mo  Mo6  1  5.49055000  0.02444980  1.83789000  1
  Mo  Mo7  1  3.63228000  1.81871000  1.78605000  1
  Mo  Mo8  1  7.22388000  3.64116000  0.05272660  1
  Mo  Mo9  1  1.80486000  5.47310000  -0.00586785  1
  Mo  Mo10  1  1.83210000  3.65898000  1.84311000  1
  Mo  Mo11  1  0.02630660  5.53707000  1.78340000  1
  Mo  Mo12  1  3.64368000  3.61539000  0.03093450  1
  Mo  Mo13  1  5.41550000  5.45380000  3.65225000  1
  Mo  Mo14  1  5.44434000  3.63291000  1.85906000  1
  Mo  Mo15  1  3.64950000  5.46514000  1.78708000  1
