# generated using pymatgen
data_Mo
_symmetry_space_group_name_H-M   'P 1'
_cell_length_a   7.27963737
_cell_length_b   7.27963737
_cell_length_c   3.63981867
_cell_angle_alpha   90.00000000
_cell_angle_beta   90.00000000
_cell_angle_gamma   90.00000000
_symmetry_Int_Tables_number   1
_chemical_formula_structural   Mo
_chemical_formula_sum   Mo16
_cell_volume   192.88534851
_cell_formula_units_Z   16
loop_
 _symmetry_equiv_pos_site_id
 _symmetry_equiv_pos_as_xyz
  1  'x, y, z'
loop_
 _atom_site_type_symbol
 _atom_site_label
 _atom_site_symmetry_multiplicity
 _atom_site_fract_x
 _atom_site_fract_y
 _atom_site_fract_z
 _atom_site_occupancy
  Mo  Mo0  1  0.01646880  -0.03475430  0.05309530  1
  Mo  Mo1  1  1.78506000  1.80040000  0.01532600  1
  Mo  Mo2  1  1.81938000  7.34963000  1.81923000  1
  Mo  Mo3  1  7.24033000  1.86361000  1.87222000  1
  Mo  Mo4  1  3.63656000  7.25662000  3.59927000  1
  Mo  Mo5  1  5.49863000  1.83549000  3.64502000  1
  Mo  Mo6  1  5.47258000  0.01328130  1.79568000  1
  Mo  Mo7  1  3.65076000  1.83524000  1.86928000  1
  Mo  Mo8  1  7.29123000  3.66713000  0.03589610  1
  Mo  Mo9  1  1.80886000  5.48340000  0.01126650  1
  Mo  Mo10  1  1.79746000  3.58785000  1.81541000  1
  Mo  Mo11  1  0.02911570  5.46316000  1.80079000  1
  Mo  Mo12  1  3.62814000  3.62709000  -0.02163290  1
  Mo  Mo13  1  5.47178000  5.44101000  3.62190000  1
  Mo  Mo14  1  5.46317000  3.63428000  1.82653000  1
  Mo  Mo15  1  3.61448000  5.40056000  1.71290000  1
