# generated using pymatgen
data_Mo
_symmetry_space_group_name_H-M   'P 1'
_cell_length_a   7.27963737
_cell_length_b   7.27963737
_cell_length_c   3.63981867
_cell_angle_alpha   90.00000000
_cell_angle_beta   90.00000000
_cell_angle_gamma   90.00000000
_symmetry_Int_Tables_number   1
_chemical_formula_structural   Mo
_chemical_formula_sum   Mo16
_cell_volume   192.88534851
_cell_formula_units_Z   16
loop_
 _symmetry_equiv_pos_site_id
 _symmetry_equiv_pos_as_xyz
  1  'x, y, z'
loop_
 _atom_site_type_symbol
 _atom_site_label
 _atom_site_symmetry_multiplicity
 _atom_site_fract_x
 _atom_site_fract_y
 _atom_site_fract_z
 _atom_site_occupancy
  Mo  Mo0  1  -0.00108504  0.00852889  0.02289440  1
  Mo  Mo1  1  1.82502000  1.83865000  -0.05421440  1
  Mo  Mo2  1  1.79967000  7.23797000  1.82166000  1
  Mo  Mo3  1  7.21375000  1.76067000  1.80245000  1
  Mo  Mo4  1  3.60331000  7.31981000  3.62456000  1
  Mo  Mo5  1  5.46416000  1.87902000  3.57775000  1
  Mo  Mo6  1  5.45232000  -0.00658676  1.81220000  1
  Mo  Mo7  1  3.61989000  1.81883000  1.81910000  1
  Mo  Mo8  1  7.31371000  3.61032000  0.00116257  1
  Mo  Mo9  1  1.84755000  5.45131000  0.06465660  1
  Mo  Mo10  1  1.83340000  3.62173000  1.80537000  1
  Mo  Mo11  1  0.02354820  5.49211000  1.87539000  1
  Mo  Mo12  1  3.67128000  3.62914000  0.00746966  1
  Mo  Mo13  1  5.43058000  5.45973000  3.67829000  1
  Mo  Mo14  1  5.47579000  3.65595000  1.79659000  1
  Mo  Mo15  1  3.65109000  5.44682000  1.81685000  1
