# generated using pymatgen
data_Mo
_symmetry_space_group_name_H-M   'P 1'
_cell_length_a   7.27963737
_cell_length_b   7.27963737
_cell_length_c   3.63981867
_cell_angle_alpha   90.00000000
_cell_angle_beta   90.00000000
_cell_angle_gamma   90.00000000
_symmetry_Int_Tables_number   1
_chemical_formula_structural   Mo
_chemical_formula_sum   Mo16
_cell_volume   192.88534851
_cell_formula_units_Z   16
loop_
 _symmetry_equiv_pos_site_id
 _symmetry_equiv_pos_as_xyz
  1  'x, y, z'
loop_
 _atom_site_type_symbol
 _atom_site_label
 _atom_site_symmetry_multiplicity
 _atom_site_fract_x
 _atom_site_fract_y
 _atom_site_fract_z
 _atom_site_occupancy
  Mo  Mo0  1  0.00495665  0.02082860  0.03910840  1
  Mo  Mo1  1  1.82215000  1.82354000  0.06606100  1
  Mo  Mo2  1  1.79521000  7.20340000  1.85407000  1
  Mo  Mo3  1  7.26270000  1.77026000  1.84737000  1
  Mo  Mo4  1  3.62543000  7.32436000  3.64893000  1
  Mo  Mo5  1  5.41935000  1.83669000  3.70578000  1
  Mo  Mo6  1  5.45311000  -0.02485120  1.85571000  1
  Mo  Mo7  1  3.64403000  1.82395000  1.79551000  1
  Mo  Mo8  1  7.29583000  3.60026000  -0.02258850  1
  Mo  Mo9  1  1.80578000  5.49012000  -0.04259800  1
  Mo  Mo10  1  1.85862000  3.65001000  1.79210000  1
  Mo  Mo11  1  -0.01386630  5.45422000  1.80516000  1
  Mo  Mo12  1  3.62996000  3.64547000  -0.05505410  1
  Mo  Mo13  1  5.45777000  5.49121000  3.62861000  1
  Mo  Mo14  1  5.47637000  3.65597000  1.76820000  1
  Mo  Mo15  1  3.68659000  5.45857000  1.78581000  1
