# generated using pymatgen
data_Mo
_symmetry_space_group_name_H-M   'P 1'
_cell_length_a   7.27963737
_cell_length_b   7.27963737
_cell_length_c   3.63981867
_cell_angle_alpha   90.00000000
_cell_angle_beta   90.00000000
_cell_angle_gamma   90.00000000
_symmetry_Int_Tables_number   1
_chemical_formula_structural   Mo
_chemical_formula_sum   Mo16
_cell_volume   192.88534851
_cell_formula_units_Z   16
loop_
 _symmetry_equiv_pos_site_id
 _symmetry_equiv_pos_as_xyz
  1  'x, y, z'
loop_
 _atom_site_type_symbol
 _atom_site_label
 _atom_site_symmetry_multiplicity
 _atom_site_fract_x
 _atom_site_fract_y
 _atom_site_fract_z
 _atom_site_occupancy
  Mo  Mo0  1  0.03207210  0.00630291  -0.09082030  1
  Mo  Mo1  1  1.81723000  1.82135000  -0.01901940  1
  Mo  Mo2  1  1.85219000  7.26402000  1.82262000  1
  Mo  Mo3  1  7.30913000  1.86997000  1.84890000  1
  Mo  Mo4  1  3.64436000  7.30991000  3.60214000  1
  Mo  Mo5  1  5.48582000  1.74772000  3.63786000  1
  Mo  Mo6  1  5.46833000  -0.02495890  1.82432000  1
  Mo  Mo7  1  3.65495000  1.81176000  1.83484000  1
  Mo  Mo8  1  7.26712000  3.66306000  0.00207927  1
  Mo  Mo9  1  1.78330000  5.49099000  0.02343920  1
  Mo  Mo10  1  1.78967000  3.65475000  1.80184000  1
  Mo  Mo11  1  -0.01453930  5.41404000  1.80507000  1
  Mo  Mo12  1  3.59649000  3.64427000  0.04591110  1
  Mo  Mo13  1  5.42803000  5.48659000  3.68657000  1
  Mo  Mo14  1  5.44993000  3.62929000  1.81319000  1
  Mo  Mo15  1  3.65992000  5.43493000  1.83324000  1
