# generated using pymatgen
data_Mo
_symmetry_space_group_name_H-M   'P 1'
_cell_length_a   7.27963737
_cell_length_b   7.27963737
_cell_length_c   3.63981867
_cell_angle_alpha   90.00000000
_cell_angle_beta   90.00000000
_cell_angle_gamma   90.00000000
_symmetry_Int_Tables_number   1
_chemical_formula_structural   Mo
_chemical_formula_sum   Mo16
_cell_volume   192.88534851
_cell_formula_units_Z   16
loop_
 _symmetry_equiv_pos_site_id
 _symmetry_equiv_pos_as_xyz
  1  'x, y, z'
loop_
 _atom_site_type_symbol
 _atom_site_label
 _atom_site_symmetry_multiplicity
 _atom_site_fract_x
 _atom_site_fract_y
 _atom_site_fract_z
 _atom_site_occupancy
  Mo  Mo0  1  0.01362580  -0.00560552  0.03489260  1
  Mo  Mo1  1  1.82107000  1.87371000  0.05239150  1
  Mo  Mo2  1  1.84656000  7.28344000  1.80094000  1
  Mo  Mo3  1  7.29595000  1.78844000  1.82731000  1
  Mo  Mo4  1  3.63824000  7.31102000  3.68354000  1
  Mo  Mo5  1  5.45159000  1.83797000  3.68394000  1
  Mo  Mo6  1  5.38845000  -0.01770270  1.80070000  1
  Mo  Mo7  1  3.65354000  1.80131000  1.86358000  1
  Mo  Mo8  1  7.30604000  3.65129000  -0.06258660  1
  Mo  Mo9  1  1.84471000  5.41149000  -0.06083280  1
  Mo  Mo10  1  1.82113000  3.63958000  1.80935000  1
  Mo  Mo11  1  -0.04355380  5.42462000  1.76967000  1
  Mo  Mo12  1  3.66200000  3.64396000  -0.01572330  1
  Mo  Mo13  1  5.45472000  5.46979000  3.60049000  1
  Mo  Mo14  1  5.43388000  3.62628000  1.81519000  1
  Mo  Mo15  1  3.63603000  5.48442000  1.86933000  1
