# generated using pymatgen
data_Mo
_symmetry_space_group_name_H-M   'P 1'
_cell_length_a   7.27808089
_cell_length_b   7.27808089
_cell_length_c   3.63904047
_cell_angle_alpha   90.00000000
_cell_angle_beta   90.00000000
_cell_angle_gamma   90.00000000
_symmetry_Int_Tables_number   1
_chemical_formula_structural   Mo
_chemical_formula_sum   Mo16
_cell_volume   192.76165285
_cell_formula_units_Z   16
loop_
 _symmetry_equiv_pos_site_id
 _symmetry_equiv_pos_as_xyz
  1  'x, y, z'
loop_
 _atom_site_type_symbol
 _atom_site_label
 _atom_site_symmetry_multiplicity
 _atom_site_fract_x
 _atom_site_fract_y
 _atom_site_fract_z
 _atom_site_occupancy
  Mo  Mo0  1  0.00386332  7.26919000  0.00738422  1
  Mo  Mo1  1  1.83330000  1.82273000  0.01132500  1
  Mo  Mo2  1  1.81553000  7.29101000  1.82745000  1
  Mo  Mo3  1  7.27569000  1.81611000  1.82521000  1
  Mo  Mo4  1  3.63375000  7.27804000  3.63248000  1
  Mo  Mo5  1  5.45914000  1.81230000  0.00663500  1
  Mo  Mo6  1  5.46081000  0.00868198  1.81602000  1
  Mo  Mo7  1  3.65135000  1.81748000  1.81222000  1
  Mo  Mo8  1  7.27500000  3.63446000  3.64482000  1
  Mo  Mo9  1  1.81766000  5.46597000  3.62719000  1
  Mo  Mo10  1  1.81132000  3.64470000  1.81412000  1
  Mo  Mo11  1  7.27784000  5.46435000  1.81220000  1
  Mo  Mo12  1  3.63405000  3.63161000  0.00500952  1
  Mo  Mo13  1  5.44902000  5.45908000  3.62896000  1
  Mo  Mo14  1  5.46766000  3.63769000  1.82147000  1
  Mo  Mo15  1  3.63611000  5.44868000  1.81950000  1
