# generated using pymatgen
data_Mo
_symmetry_space_group_name_H-M   'P 1'
_cell_length_a   7.27963737
_cell_length_b   7.27963737
_cell_length_c   3.63981867
_cell_angle_alpha   90.00000000
_cell_angle_beta   90.00000000
_cell_angle_gamma   90.00000000
_symmetry_Int_Tables_number   1
_chemical_formula_structural   Mo
_chemical_formula_sum   Mo16
_cell_volume   192.88534851
_cell_formula_units_Z   16
loop_
 _symmetry_equiv_pos_site_id
 _symmetry_equiv_pos_as_xyz
  1  'x, y, z'
loop_
 _atom_site_type_symbol
 _atom_site_label
 _atom_site_symmetry_multiplicity
 _atom_site_fract_x
 _atom_site_fract_y
 _atom_site_fract_z
 _atom_site_occupancy
  Mo  Mo0  1  0.01076160  0.00024515  -0.00766097  1
  Mo  Mo1  1  1.86141000  1.83993000  -0.02007590  1
  Mo  Mo2  1  1.84822000  7.26817000  1.81932000  1
  Mo  Mo3  1  7.26198000  1.76599000  1.82898000  1
  Mo  Mo4  1  3.66274000  7.35012000  3.71671000  1
  Mo  Mo5  1  5.47302000  1.82083000  3.61993000  1
  Mo  Mo6  1  5.44805000  -0.05954300  1.84736000  1
  Mo  Mo7  1  3.63835000  1.77342000  1.86207000  1
  Mo  Mo8  1  7.29769000  3.62738000  -0.05545000  1
  Mo  Mo9  1  1.82515000  5.50653000  0.01648850  1
  Mo  Mo10  1  1.78166000  3.63227000  1.75451000  1
  Mo  Mo11  1  -0.00591846  5.46819000  1.76061000  1
  Mo  Mo12  1  3.64586000  3.63701000  -0.00085551  1
  Mo  Mo13  1  5.39385000  5.47006000  3.68304000  1
  Mo  Mo14  1  5.45216000  3.64979000  1.77066000  1
  Mo  Mo15  1  3.62900000  5.47359000  1.87655000  1
