# generated using pymatgen
data_Mo
_symmetry_space_group_name_H-M   'P 1'
_cell_length_a   7.27963737
_cell_length_b   7.27963737
_cell_length_c   3.63981867
_cell_angle_alpha   90.00000000
_cell_angle_beta   90.00000000
_cell_angle_gamma   90.00000000
_symmetry_Int_Tables_number   1
_chemical_formula_structural   Mo
_chemical_formula_sum   Mo16
_cell_volume   192.88534851
_cell_formula_units_Z   16
loop_
 _symmetry_equiv_pos_site_id
 _symmetry_equiv_pos_as_xyz
  1  'x, y, z'
loop_
 _atom_site_type_symbol
 _atom_site_label
 _atom_site_symmetry_multiplicity
 _atom_site_fract_x
 _atom_site_fract_y
 _atom_site_fract_z
 _atom_site_occupancy
  Mo  Mo0  1  0.01138400  0.02528030  -0.03220060  1
  Mo  Mo1  1  1.78940000  1.84882000  -0.04786060  1
  Mo  Mo2  1  1.85941000  7.23669000  1.80969000  1
  Mo  Mo3  1  7.26529000  1.85744000  1.83056000  1
  Mo  Mo4  1  3.65518000  7.29260000  3.58754000  1
  Mo  Mo5  1  5.48890000  1.82488000  3.61078000  1
  Mo  Mo6  1  5.44656000  0.00586803  1.79948000  1
  Mo  Mo7  1  3.61569000  1.78437000  1.78896000  1
  Mo  Mo8  1  7.26239000  3.66960000  0.04495240  1
  Mo  Mo9  1  1.81872000  5.44314000  0.08718220  1
  Mo  Mo10  1  1.82001000  3.60269000  1.78668000  1
  Mo  Mo11  1  -0.02438780  5.46671000  1.89843000  1
  Mo  Mo12  1  3.61166000  3.63265000  0.02497240  1
  Mo  Mo13  1  5.50108000  5.48457000  3.71155000  1
  Mo  Mo14  1  5.42463000  3.61365000  1.76124000  1
  Mo  Mo15  1  3.67808000  5.43506000  1.81022000  1
