# generated using pymatgen
data_Mo
_symmetry_space_group_name_H-M   'P 1'
_cell_length_a   7.27963737
_cell_length_b   7.27963737
_cell_length_c   3.63981867
_cell_angle_alpha   90.00000000
_cell_angle_beta   90.00000000
_cell_angle_gamma   90.00000000
_symmetry_Int_Tables_number   1
_chemical_formula_structural   Mo
_chemical_formula_sum   Mo16
_cell_volume   192.88534851
_cell_formula_units_Z   16
loop_
 _symmetry_equiv_pos_site_id
 _symmetry_equiv_pos_as_xyz
  1  'x, y, z'
loop_
 _atom_site_type_symbol
 _atom_site_label
 _atom_site_symmetry_multiplicity
 _atom_site_fract_x
 _atom_site_fract_y
 _atom_site_fract_z
 _atom_site_occupancy
  Mo  Mo0  1  -0.01653270  0.01432450  -0.01951090  1
  Mo  Mo1  1  1.81656000  1.78981000  0.00642679  1
  Mo  Mo2  1  1.81512000  7.24559000  1.76748000  1
  Mo  Mo3  1  7.22512000  1.79113000  1.91894000  1
  Mo  Mo4  1  3.64086000  7.30460000  3.56776000  1
  Mo  Mo5  1  5.45757000  1.84788000  3.60664000  1
  Mo  Mo6  1  5.43870000  -0.02887410  1.76088000  1
  Mo  Mo7  1  3.61971000  1.80827000  1.82453000  1
  Mo  Mo8  1  7.29681000  3.66177000  0.06969750  1
  Mo  Mo9  1  1.85121000  5.50412000  0.02563090  1
  Mo  Mo10  1  1.83797000  3.61751000  1.84952000  1
  Mo  Mo11  1  0.04119840  5.45800000  1.82861000  1
  Mo  Mo12  1  3.69288000  3.65451000  -0.02078770  1
  Mo  Mo13  1  5.43690000  5.48905000  3.65040000  1
  Mo  Mo14  1  5.44405000  3.67007000  1.82953000  1
  Mo  Mo15  1  3.62587000  5.39623000  1.80644000  1
