# generated using pymatgen
data_Mo
_symmetry_space_group_name_H-M   'P 1'
_cell_length_a   7.27963737
_cell_length_b   7.27963737
_cell_length_c   3.63981867
_cell_angle_alpha   90.00000000
_cell_angle_beta   90.00000000
_cell_angle_gamma   90.00000000
_symmetry_Int_Tables_number   1
_chemical_formula_structural   Mo
_chemical_formula_sum   Mo16
_cell_volume   192.88534851
_cell_formula_units_Z   16
loop_
 _symmetry_equiv_pos_site_id
 _symmetry_equiv_pos_as_xyz
  1  'x, y, z'
loop_
 _atom_site_type_symbol
 _atom_site_label
 _atom_site_symmetry_multiplicity
 _atom_site_fract_x
 _atom_site_fract_y
 _atom_site_fract_z
 _atom_site_occupancy
  Mo  Mo0  1  0.00333740  0.03915880  -0.06066080  1
  Mo  Mo1  1  1.83943000  1.84936000  -0.03758580  1
  Mo  Mo2  1  1.84716000  7.28805000  1.78773000  1
  Mo  Mo3  1  7.23739000  1.81257000  1.83347000  1
  Mo  Mo4  1  3.62907000  7.28797000  3.61638000  1
  Mo  Mo5  1  5.45891000  1.82319000  3.59337000  1
  Mo  Mo6  1  5.46063000  -0.07364840  1.76401000  1
  Mo  Mo7  1  3.68105000  1.82494000  1.79812000  1
  Mo  Mo8  1  7.26382000  3.66181000  0.01307890  1
  Mo  Mo9  1  1.79308000  5.43548000  0.04389520  1
  Mo  Mo10  1  1.84070000  3.66814000  1.86262000  1
  Mo  Mo11  1  0.00096316  5.47373000  1.80829000  1
  Mo  Mo12  1  3.64676000  3.61144000  0.06110860  1
  Mo  Mo13  1  5.45782000  5.42518000  3.64642000  1
  Mo  Mo14  1  5.41574000  3.67186000  1.85971000  1
  Mo  Mo15  1  3.64813000  5.42478000  1.88221000  1
