# generated using pymatgen
data_Mo
_symmetry_space_group_name_H-M   'P 1'
_cell_length_a   7.27963737
_cell_length_b   7.27963737
_cell_length_c   3.63981867
_cell_angle_alpha   90.00000000
_cell_angle_beta   90.00000000
_cell_angle_gamma   90.00000000
_symmetry_Int_Tables_number   1
_chemical_formula_structural   Mo
_chemical_formula_sum   Mo16
_cell_volume   192.88534851
_cell_formula_units_Z   16
loop_
 _symmetry_equiv_pos_site_id
 _symmetry_equiv_pos_as_xyz
  1  'x, y, z'
loop_
 _atom_site_type_symbol
 _atom_site_label
 _atom_site_symmetry_multiplicity
 _atom_site_fract_x
 _atom_site_fract_y
 _atom_site_fract_z
 _atom_site_occupancy
  Mo  Mo0  1  0.04018630  -0.01115720  -0.00395643  1
  Mo  Mo1  1  1.81070000  1.83171000  0.01500920  1
  Mo  Mo2  1  1.81879000  7.35720000  1.79813000  1
  Mo  Mo3  1  7.27882000  1.82023000  1.76648000  1
  Mo  Mo4  1  3.62606000  7.24397000  3.63469000  1
  Mo  Mo5  1  5.47533000  1.80515000  3.62957000  1
  Mo  Mo6  1  5.44076000  0.00389998  1.78228000  1
  Mo  Mo7  1  3.66100000  1.77257000  1.85814000  1
  Mo  Mo8  1  7.28076000  3.61552000  0.01463850  1
  Mo  Mo9  1  1.82375000  5.44474000  0.00043012  1
  Mo  Mo10  1  1.80822000  3.62671000  1.85586000  1
  Mo  Mo11  1  -0.01000850  5.52920000  1.79791000  1
  Mo  Mo12  1  3.65434000  3.61421000  0.05486420  1
  Mo  Mo13  1  5.48820000  5.39897000  3.60731000  1
  Mo  Mo14  1  5.43527000  3.66663000  1.83402000  1
  Mo  Mo15  1  3.59184000  5.50444000  1.82680000  1
