# generated using pymatgen
data_Mo
_symmetry_space_group_name_H-M   'P 1'
_cell_length_a   7.27963737
_cell_length_b   7.27963737
_cell_length_c   3.63981867
_cell_angle_alpha   90.00000000
_cell_angle_beta   90.00000000
_cell_angle_gamma   90.00000000
_symmetry_Int_Tables_number   1
_chemical_formula_structural   Mo
_chemical_formula_sum   Mo16
_cell_volume   192.88534851
_cell_formula_units_Z   16
loop_
 _symmetry_equiv_pos_site_id
 _symmetry_equiv_pos_as_xyz
  1  'x, y, z'
loop_
 _atom_site_type_symbol
 _atom_site_label
 _atom_site_symmetry_multiplicity
 _atom_site_fract_x
 _atom_site_fract_y
 _atom_site_fract_z
 _atom_site_occupancy
  Mo  Mo0  1  -0.03044690  -0.06438350  -0.02224180  1
  Mo  Mo1  1  1.77383000  1.77134000  -0.00907655  1
  Mo  Mo2  1  1.79888000  7.35867000  1.78156000  1
  Mo  Mo3  1  7.24697000  1.83066000  1.86926000  1
  Mo  Mo4  1  3.63647000  7.27776000  3.60011000  1
  Mo  Mo5  1  5.47940000  1.80953000  3.59377000  1
  Mo  Mo6  1  5.43736000  0.04808340  1.79578000  1
  Mo  Mo7  1  3.64452000  1.82258000  1.81963000  1
  Mo  Mo8  1  7.33284000  3.65160000  0.06867310  1
  Mo  Mo9  1  1.81828000  5.43823000  0.01798800  1
  Mo  Mo10  1  1.79828000  3.57303000  1.88254000  1
  Mo  Mo11  1  0.04339620  5.44506000  1.75983000  1
  Mo  Mo12  1  3.62994000  3.65038000  0.00958690  1
  Mo  Mo13  1  5.47360000  5.47518000  3.65309000  1
  Mo  Mo14  1  5.51164000  3.67020000  1.85284000  1
  Mo  Mo15  1  3.62903000  5.46608000  1.79884000  1
