# generated using pymatgen
data_Mo
_symmetry_space_group_name_H-M   'P 1'
_cell_length_a   7.27963737
_cell_length_b   7.27963737
_cell_length_c   3.63981867
_cell_angle_alpha   90.00000000
_cell_angle_beta   90.00000000
_cell_angle_gamma   90.00000000
_symmetry_Int_Tables_number   1
_chemical_formula_structural   Mo
_chemical_formula_sum   Mo16
_cell_volume   192.88534851
_cell_formula_units_Z   16
loop_
 _symmetry_equiv_pos_site_id
 _symmetry_equiv_pos_as_xyz
  1  'x, y, z'
loop_
 _atom_site_type_symbol
 _atom_site_label
 _atom_site_symmetry_multiplicity
 _atom_site_fract_x
 _atom_site_fract_y
 _atom_site_fract_z
 _atom_site_occupancy
  Mo  Mo0  1  0.03491830  0.03168620  0.03446080  1
  Mo  Mo1  1  1.78682000  1.82001000  0.01295520  1
  Mo  Mo2  1  1.81573000  7.26359000  1.87068000  1
  Mo  Mo3  1  7.27520000  1.79742000  1.82749000  1
  Mo  Mo4  1  3.63877000  7.30463000  3.59756000  1
  Mo  Mo5  1  5.45687000  1.83496000  3.65581000  1
  Mo  Mo6  1  5.49010000  -0.01248970  1.84869000  1
  Mo  Mo7  1  3.62056000  1.80806000  1.78617000  1
  Mo  Mo8  1  7.25046000  3.65696000  -0.01437570  1
  Mo  Mo9  1  1.78549000  5.48024000  0.01887760  1
  Mo  Mo10  1  1.82899000  3.60606000  1.80999000  1
  Mo  Mo11  1  0.03003980  5.44892000  1.87727000  1
  Mo  Mo12  1  3.61389000  3.64313000  -0.07745950  1
  Mo  Mo13  1  5.50746000  5.47885000  3.62702000  1
  Mo  Mo14  1  5.46274000  3.67060000  1.79053000  1
  Mo  Mo15  1  3.62597000  5.39137000  1.80649000  1
