# generated using pymatgen
data_Mo
_symmetry_space_group_name_H-M   'P 1'
_cell_length_a   7.27963737
_cell_length_b   7.27963737
_cell_length_c   3.63981867
_cell_angle_alpha   90.00000000
_cell_angle_beta   90.00000000
_cell_angle_gamma   90.00000000
_symmetry_Int_Tables_number   1
_chemical_formula_structural   Mo
_chemical_formula_sum   Mo16
_cell_volume   192.88534851
_cell_formula_units_Z   16
loop_
 _symmetry_equiv_pos_site_id
 _symmetry_equiv_pos_as_xyz
  1  'x, y, z'
loop_
 _atom_site_type_symbol
 _atom_site_label
 _atom_site_symmetry_multiplicity
 _atom_site_fract_x
 _atom_site_fract_y
 _atom_site_fract_z
 _atom_site_occupancy
  Mo  Mo0  1  -0.00205304  -0.00159364  0.01738700  1
  Mo  Mo1  1  1.84945000  1.85235000  -0.01934620  1
  Mo  Mo2  1  1.87497000  7.31503000  1.84059000  1
  Mo  Mo3  1  7.27386000  1.86715000  1.76288000  1
  Mo  Mo4  1  3.67772000  7.22656000  3.69786000  1
  Mo  Mo5  1  5.46490000  1.80623000  3.65120000  1
  Mo  Mo6  1  5.45102000  0.02660170  1.82802000  1
  Mo  Mo7  1  3.64243000  1.83557000  1.79226000  1
  Mo  Mo8  1  7.29810000  3.66090000  -0.02652110  1
  Mo  Mo9  1  1.82844000  5.47151000  -0.02287120  1
  Mo  Mo10  1  1.77896000  3.61133000  1.76652000  1
  Mo  Mo11  1  -0.03035090  5.45688000  1.88554000  1
  Mo  Mo12  1  3.61453000  3.63782000  0.00807114  1
  Mo  Mo13  1  5.43568000  5.44316000  3.63926000  1
  Mo  Mo14  1  5.43720000  3.57535000  1.78731000  1
  Mo  Mo15  1  3.62915000  5.43914000  1.86403000  1
