# generated using pymatgen
data_Mo
_symmetry_space_group_name_H-M   'P 1'
_cell_length_a   7.27963737
_cell_length_b   7.27963737
_cell_length_c   3.63981867
_cell_angle_alpha   90.00000000
_cell_angle_beta   90.00000000
_cell_angle_gamma   90.00000000
_symmetry_Int_Tables_number   1
_chemical_formula_structural   Mo
_chemical_formula_sum   Mo16
_cell_volume   192.88534851
_cell_formula_units_Z   16
loop_
 _symmetry_equiv_pos_site_id
 _symmetry_equiv_pos_as_xyz
  1  'x, y, z'
loop_
 _atom_site_type_symbol
 _atom_site_label
 _atom_site_symmetry_multiplicity
 _atom_site_fract_x
 _atom_site_fract_y
 _atom_site_fract_z
 _atom_site_occupancy
  Mo  Mo0  1  -0.01550710  -0.00411083  0.07062750  1
  Mo  Mo1  1  1.80145000  1.80158000  -0.02884690  1
  Mo  Mo2  1  1.79186000  7.29190000  1.82205000  1
  Mo  Mo3  1  7.28268000  1.83519000  1.76775000  1
  Mo  Mo4  1  3.65432000  7.25436000  3.64029000  1
  Mo  Mo5  1  5.41852000  1.80840000  3.61316000  1
  Mo  Mo6  1  5.48713000  0.04497360  1.81674000  1
  Mo  Mo7  1  3.60285000  1.79000000  1.75157000  1
  Mo  Mo8  1  7.27345000  3.65319000  0.03628310  1
  Mo  Mo9  1  1.85343000  5.40691000  0.00864966  1
  Mo  Mo10  1  1.76864000  3.65680000  1.87171000  1
  Mo  Mo11  1  0.01445370  5.45921000  1.88946000  1
  Mo  Mo12  1  3.65907000  3.58944000  -0.07497330  1
  Mo  Mo13  1  5.45478000  5.48946000  3.60564000  1
  Mo  Mo14  1  5.50966000  3.66507000  1.87069000  1
  Mo  Mo15  1  3.66721000  5.48162000  1.81137000  1
