# generated using pymatgen
data_Mo
_symmetry_space_group_name_H-M   'P 1'
_cell_length_a   7.27808089
_cell_length_b   7.27808089
_cell_length_c   3.63904047
_cell_angle_alpha   90.00000000
_cell_angle_beta   90.00000000
_cell_angle_gamma   90.00000000
_symmetry_Int_Tables_number   1
_chemical_formula_structural   Mo
_chemical_formula_sum   Mo16
_cell_volume   192.76165285
_cell_formula_units_Z   16
loop_
 _symmetry_equiv_pos_site_id
 _symmetry_equiv_pos_as_xyz
  1  'x, y, z'
loop_
 _atom_site_type_symbol
 _atom_site_label
 _atom_site_symmetry_multiplicity
 _atom_site_fract_x
 _atom_site_fract_y
 _atom_site_fract_z
 _atom_site_occupancy
  Mo  Mo0  1  0.01765020  7.28293000  -0.00360481  1
  Mo  Mo1  1  1.82613000  1.81960000  0.00822836  1
  Mo  Mo2  1  1.81126000  7.27277000  1.80864000  1
  Mo  Mo3  1  7.28688000  1.82534000  1.82205000  1
  Mo  Mo4  1  3.64772000  7.28342000  3.64870000  1
  Mo  Mo5  1  5.45405000  1.81138000  0.00037410  1
  Mo  Mo6  1  5.45613000  -0.01804370  1.81222000  1
  Mo  Mo7  1  3.63516000  1.82404000  1.82667000  1
  Mo  Mo8  1  7.27956000  3.65238000  3.63588000  1
  Mo  Mo9  1  1.81852000  5.45715000  3.64278000  1
  Mo  Mo10  1  1.83021000  3.64429000  1.82550000  1
  Mo  Mo11  1  7.26480000  5.45767000  1.81898000  1
  Mo  Mo12  1  3.62218000  3.64051000  -0.00861751  1
  Mo  Mo13  1  5.45425000  5.44656000  3.64014000  1
  Mo  Mo14  1  5.46451000  3.63734000  1.82512000  1
  Mo  Mo15  1  3.63309000  5.46473000  1.80895000  1
