# generated using pymatgen
data_Mo
_symmetry_space_group_name_H-M   'P 1'
_cell_length_a   7.27963737
_cell_length_b   7.27963737
_cell_length_c   3.63981867
_cell_angle_alpha   90.00000000
_cell_angle_beta   90.00000000
_cell_angle_gamma   90.00000000
_symmetry_Int_Tables_number   1
_chemical_formula_structural   Mo
_chemical_formula_sum   Mo16
_cell_volume   192.88534851
_cell_formula_units_Z   16
loop_
 _symmetry_equiv_pos_site_id
 _symmetry_equiv_pos_as_xyz
  1  'x, y, z'
loop_
 _atom_site_type_symbol
 _atom_site_label
 _atom_site_symmetry_multiplicity
 _atom_site_fract_x
 _atom_site_fract_y
 _atom_site_fract_z
 _atom_site_occupancy
  Mo  Mo0  1  0.00170111  -0.05304700  0.06363400  1
  Mo  Mo1  1  1.79822000  1.85314000  -0.02537580  1
  Mo  Mo2  1  1.77776000  7.29350000  1.80684000  1
  Mo  Mo3  1  7.27295000  1.80268000  1.79516000  1
  Mo  Mo4  1  3.61042000  7.27481000  3.63444000  1
  Mo  Mo5  1  5.48425000  1.85254000  3.63844000  1
  Mo  Mo6  1  5.45897000  -0.01972580  1.85582000  1
  Mo  Mo7  1  3.65621000  1.83758000  1.83241000  1
  Mo  Mo8  1  7.29965000  3.62503000  -0.01229270  1
  Mo  Mo9  1  1.80998000  5.41691000  -0.01472150  1
  Mo  Mo10  1  1.83429000  3.63178000  1.78107000  1
  Mo  Mo11  1  -0.00825275  5.47220000  1.84570000  1
  Mo  Mo12  1  3.66224000  3.66177000  -0.03709210  1
  Mo  Mo13  1  5.53065000  5.40516000  3.65613000  1
  Mo  Mo14  1  5.44459000  3.69280000  1.82298000  1
  Mo  Mo15  1  3.59037000  5.47687000  1.82904000  1
