# generated using pymatgen
data_Mo
_symmetry_space_group_name_H-M   'P 1'
_cell_length_a   7.27963737
_cell_length_b   7.27963737
_cell_length_c   3.63981867
_cell_angle_alpha   90.00000000
_cell_angle_beta   90.00000000
_cell_angle_gamma   90.00000000
_symmetry_Int_Tables_number   1
_chemical_formula_structural   Mo
_chemical_formula_sum   Mo16
_cell_volume   192.88534851
_cell_formula_units_Z   16
loop_
 _symmetry_equiv_pos_site_id
 _symmetry_equiv_pos_as_xyz
  1  'x, y, z'
loop_
 _atom_site_type_symbol
 _atom_site_label
 _atom_site_symmetry_multiplicity
 _atom_site_fract_x
 _atom_site_fract_y
 _atom_site_fract_z
 _atom_site_occupancy
  Mo  Mo0  1  0.02463210  0.00298786  0.03649760  1
  Mo  Mo1  1  1.82893000  1.80107000  -0.03409000  1
  Mo  Mo2  1  1.80192000  7.31846000  1.80719000  1
  Mo  Mo3  1  7.27465000  1.84635000  1.78337000  1
  Mo  Mo4  1  3.63836000  7.22089000  3.65169000  1
  Mo  Mo5  1  5.45236000  1.80297000  3.57265000  1
  Mo  Mo6  1  5.51719000  0.02205780  1.79716000  1
  Mo  Mo7  1  3.62967000  1.82292000  1.81349000  1
  Mo  Mo8  1  7.29423000  3.64388000  0.04652710  1
  Mo  Mo9  1  1.81370000  5.42683000  0.04560910  1
  Mo  Mo10  1  1.75257000  3.63391000  1.83321000  1
  Mo  Mo11  1  0.03364270  5.52491000  1.88077000  1
  Mo  Mo12  1  3.61185000  3.60771000  0.00954340  1
  Mo  Mo13  1  5.48606000  5.45068000  3.65053000  1
  Mo  Mo14  1  5.44651000  3.62701000  1.80201000  1
  Mo  Mo15  1  3.61773000  5.47134000  1.77602000  1
