# generated using pymatgen
data_Mo
_symmetry_space_group_name_H-M   'P 1'
_cell_length_a   7.27963737
_cell_length_b   7.27963737
_cell_length_c   3.63981867
_cell_angle_alpha   90.00000000
_cell_angle_beta   90.00000000
_cell_angle_gamma   90.00000000
_symmetry_Int_Tables_number   1
_chemical_formula_structural   Mo
_chemical_formula_sum   Mo16
_cell_volume   192.88534851
_cell_formula_units_Z   16
loop_
 _symmetry_equiv_pos_site_id
 _symmetry_equiv_pos_as_xyz
  1  'x, y, z'
loop_
 _atom_site_type_symbol
 _atom_site_label
 _atom_site_symmetry_multiplicity
 _atom_site_fract_x
 _atom_site_fract_y
 _atom_site_fract_z
 _atom_site_occupancy
  Mo  Mo0  1  0.00840242  0.00509245  0.00608730  1
  Mo  Mo1  1  1.81754000  1.82370000  0.04616030  1
  Mo  Mo2  1  1.82029000  7.27554000  1.79231000  1
  Mo  Mo3  1  7.24897000  1.81532000  1.82045000  1
  Mo  Mo4  1  3.67498000  7.26908000  3.57708000  1
  Mo  Mo5  1  5.42263000  1.80581000  3.62259000  1
  Mo  Mo6  1  5.47546000  0.00287580  1.77841000  1
  Mo  Mo7  1  3.68309000  1.78407000  1.86307000  1
  Mo  Mo8  1  7.27073000  3.66458000  0.01012010  1
  Mo  Mo9  1  1.86293000  5.45410000  0.01642740  1
  Mo  Mo10  1  1.78582000  3.61220000  1.85701000  1
  Mo  Mo11  1  0.01169660  5.48190000  1.82417000  1
  Mo  Mo12  1  3.62811000  3.64651000  0.00647257  1
  Mo  Mo13  1  5.48254000  5.49608000  3.60836000  1
  Mo  Mo14  1  5.41275000  3.66530000  1.82297000  1
  Mo  Mo15  1  3.61805000  5.42185000  1.82049000  1
