# generated using pymatgen
data_Mo
_symmetry_space_group_name_H-M   'P 1'
_cell_length_a   7.27963737
_cell_length_b   7.27963737
_cell_length_c   3.63981867
_cell_angle_alpha   90.00000000
_cell_angle_beta   90.00000000
_cell_angle_gamma   90.00000000
_symmetry_Int_Tables_number   1
_chemical_formula_structural   Mo
_chemical_formula_sum   Mo16
_cell_volume   192.88534851
_cell_formula_units_Z   16
loop_
 _symmetry_equiv_pos_site_id
 _symmetry_equiv_pos_as_xyz
  1  'x, y, z'
loop_
 _atom_site_type_symbol
 _atom_site_label
 _atom_site_symmetry_multiplicity
 _atom_site_fract_x
 _atom_site_fract_y
 _atom_site_fract_z
 _atom_site_occupancy
  Mo  Mo0  1  -0.00999995  0.01256590  -0.04160300  1
  Mo  Mo1  1  1.82848000  1.82140000  0.05014170  1
  Mo  Mo2  1  1.84035000  7.28298000  1.84941000  1
  Mo  Mo3  1  7.24001000  1.84621000  1.81142000  1
  Mo  Mo4  1  3.65397000  7.24352000  3.69781000  1
  Mo  Mo5  1  5.47608000  1.79986000  3.65466000  1
  Mo  Mo6  1  5.46789000  -0.03681100  1.81728000  1
  Mo  Mo7  1  3.65931000  1.81863000  1.87284000  1
  Mo  Mo8  1  7.26218000  3.65317000  -0.01321920  1
  Mo  Mo9  1  1.78404000  5.44573000  -0.03290050  1
  Mo  Mo10  1  1.82783000  3.64093000  1.84506000  1
  Mo  Mo11  1  0.03293010  5.45766000  1.79311000  1
  Mo  Mo12  1  3.62701000  3.63053000  0.02898260  1
  Mo  Mo13  1  5.42707000  5.48035000  3.60735000  1
  Mo  Mo14  1  5.47987000  3.65747000  1.78311000  1
  Mo  Mo15  1  3.62699000  5.46980000  1.74873000  1
