# generated using pymatgen
data_Mo
_symmetry_space_group_name_H-M   'P 1'
_cell_length_a   7.27963737
_cell_length_b   7.27963737
_cell_length_c   3.63981867
_cell_angle_alpha   90.00000000
_cell_angle_beta   90.00000000
_cell_angle_gamma   90.00000000
_symmetry_Int_Tables_number   1
_chemical_formula_structural   Mo
_chemical_formula_sum   Mo16
_cell_volume   192.88534851
_cell_formula_units_Z   16
loop_
 _symmetry_equiv_pos_site_id
 _symmetry_equiv_pos_as_xyz
  1  'x, y, z'
loop_
 _atom_site_type_symbol
 _atom_site_label
 _atom_site_symmetry_multiplicity
 _atom_site_fract_x
 _atom_site_fract_y
 _atom_site_fract_z
 _atom_site_occupancy
  Mo  Mo0  1  0.00135987  0.02841400  0.01186820  1
  Mo  Mo1  1  1.85130000  1.82952000  0.01013700  1
  Mo  Mo2  1  1.85364000  7.26526000  1.79118000  1
  Mo  Mo3  1  7.25352000  1.78767000  1.87587000  1
  Mo  Mo4  1  3.69082000  7.32005000  3.61632000  1
  Mo  Mo5  1  5.46477000  1.79913000  3.66952000  1
  Mo  Mo6  1  5.45384000  -0.05992930  1.79640000  1
  Mo  Mo7  1  3.63609000  1.75432000  1.90642000  1
  Mo  Mo8  1  7.28972000  3.66828000  -0.00153907  1
  Mo  Mo9  1  1.83199000  5.51117000  0.00197800  1
  Mo  Mo10  1  1.78518000  3.64161000  1.78874000  1
  Mo  Mo11  1  0.01572580  5.47878000  1.80636000  1
  Mo  Mo12  1  3.64558000  3.62906000  0.00125183  1
  Mo  Mo13  1  5.40208000  5.48896000  3.62730000  1
  Mo  Mo14  1  5.42949000  3.65495000  1.80880000  1
  Mo  Mo15  1  3.61888000  5.42676000  1.76158000  1
