# generated using pymatgen
data_Mo
_symmetry_space_group_name_H-M   'P 1'
_cell_length_a   7.27963737
_cell_length_b   7.27963737
_cell_length_c   3.63981867
_cell_angle_alpha   90.00000000
_cell_angle_beta   90.00000000
_cell_angle_gamma   90.00000000
_symmetry_Int_Tables_number   1
_chemical_formula_structural   Mo
_chemical_formula_sum   Mo16
_cell_volume   192.88534851
_cell_formula_units_Z   16
loop_
 _symmetry_equiv_pos_site_id
 _symmetry_equiv_pos_as_xyz
  1  'x, y, z'
loop_
 _atom_site_type_symbol
 _atom_site_label
 _atom_site_symmetry_multiplicity
 _atom_site_fract_x
 _atom_site_fract_y
 _atom_site_fract_z
 _atom_site_occupancy
  Mo  Mo0  1  0.03051240  -0.02588510  0.01739890  1
  Mo  Mo1  1  1.76935000  1.85583000  -0.03113950  1
  Mo  Mo2  1  1.83490000  7.28859000  1.78150000  1
  Mo  Mo3  1  7.24510000  1.83668000  1.80454000  1
  Mo  Mo4  1  3.65850000  7.24255000  3.59661000  1
  Mo  Mo5  1  5.47538000  1.84036000  3.59738000  1
  Mo  Mo6  1  5.46860000  0.01281890  1.76840000  1
  Mo  Mo7  1  3.64626000  1.78991000  1.74252000  1
  Mo  Mo8  1  7.28535000  3.62235000  0.09619420  1
  Mo  Mo9  1  1.83884000  5.38378000  0.03836000  1
  Mo  Mo10  1  1.78494000  3.62719000  1.85162000  1
  Mo  Mo11  1  0.02557140  5.51031000  1.85058000  1
  Mo  Mo12  1  3.61154000  3.62103000  -0.00946953  1
  Mo  Mo13  1  5.53029000  5.43560000  3.66178000  1
  Mo  Mo14  1  5.42654000  3.68378000  1.85499000  1
  Mo  Mo15  1  3.59232000  5.49910000  1.85093000  1
