# generated using pymatgen
data_Mo
_symmetry_space_group_name_H-M   'P 1'
_cell_length_a   7.27963737
_cell_length_b   7.27963737
_cell_length_c   3.63981867
_cell_angle_alpha   90.00000000
_cell_angle_beta   90.00000000
_cell_angle_gamma   90.00000000
_symmetry_Int_Tables_number   1
_chemical_formula_structural   Mo
_chemical_formula_sum   Mo16
_cell_volume   192.88534851
_cell_formula_units_Z   16
loop_
 _symmetry_equiv_pos_site_id
 _symmetry_equiv_pos_as_xyz
  1  'x, y, z'
loop_
 _atom_site_type_symbol
 _atom_site_label
 _atom_site_symmetry_multiplicity
 _atom_site_fract_x
 _atom_site_fract_y
 _atom_site_fract_z
 _atom_site_occupancy
  Mo  Mo0  1  0.00933809  0.00670278  -0.01768400  1
  Mo  Mo1  1  1.81218000  1.80823000  -0.03813740  1
  Mo  Mo2  1  1.78286000  7.26421000  1.80586000  1
  Mo  Mo3  1  7.24505000  1.82744000  1.80767000  1
  Mo  Mo4  1  3.63911000  7.29270000  3.60868000  1
  Mo  Mo5  1  5.43868000  1.81696000  3.61439000  1
  Mo  Mo6  1  5.51762000  -0.03327560  1.83172000  1
  Mo  Mo7  1  3.64084000  1.85965000  1.77792000  1
  Mo  Mo8  1  7.27150000  3.66820000  0.03123870  1
  Mo  Mo9  1  1.79007000  5.45259000  0.01901640  1
  Mo  Mo10  1  1.80494000  3.61396000  1.82719000  1
  Mo  Mo11  1  0.07697930  5.39536000  1.92112000  1
  Mo  Mo12  1  3.61928000  3.66490000  -0.02143530  1
  Mo  Mo13  1  5.45085000  5.51228000  3.69998000  1
  Mo  Mo14  1  5.48279000  3.66357000  1.82480000  1
  Mo  Mo15  1  3.64190000  5.41053000  1.77986000  1
