# generated using pymatgen
data_Mo
_symmetry_space_group_name_H-M   'P 1'
_cell_length_a   7.27963737
_cell_length_b   7.27963737
_cell_length_c   3.63981867
_cell_angle_alpha   90.00000000
_cell_angle_beta   90.00000000
_cell_angle_gamma   90.00000000
_symmetry_Int_Tables_number   1
_chemical_formula_structural   Mo
_chemical_formula_sum   Mo16
_cell_volume   192.88534851
_cell_formula_units_Z   16
loop_
 _symmetry_equiv_pos_site_id
 _symmetry_equiv_pos_as_xyz
  1  'x, y, z'
loop_
 _atom_site_type_symbol
 _atom_site_label
 _atom_site_symmetry_multiplicity
 _atom_site_fract_x
 _atom_site_fract_y
 _atom_site_fract_z
 _atom_site_occupancy
  Mo  Mo0  1  0.04023540  0.05746050  -0.02104010  1
  Mo  Mo1  1  1.83554000  1.83025000  -0.04588050  1
  Mo  Mo2  1  1.79907000  7.23464000  1.79292000  1
  Mo  Mo3  1  7.29840000  1.79245000  1.76634000  1
  Mo  Mo4  1  3.63810000  7.27047000  3.62496000  1
  Mo  Mo5  1  5.47473000  1.82589000  3.61473000  1
  Mo  Mo6  1  5.50583000  -0.03109300  1.80964000  1
  Mo  Mo7  1  3.64321000  1.78813000  1.87394000  1
  Mo  Mo8  1  7.28720000  3.65109000  -0.02829270  1
  Mo  Mo9  1  1.79165000  5.50900000  0.06692670  1
  Mo  Mo10  1  1.77767000  3.68257000  1.80576000  1
  Mo  Mo11  1  -0.05023670  5.48303000  1.82310000  1
  Mo  Mo12  1  3.56545000  3.65282000  0.02173430  1
  Mo  Mo13  1  5.48437000  5.47834000  3.69616000  1
  Mo  Mo14  1  5.47149000  3.58667000  1.84712000  1
  Mo  Mo15  1  3.66129000  5.41227000  1.82406000  1
