# generated using pymatgen
data_Mo
_symmetry_space_group_name_H-M   'P 1'
_cell_length_a   7.27963737
_cell_length_b   7.27963737
_cell_length_c   3.63981867
_cell_angle_alpha   90.00000000
_cell_angle_beta   90.00000000
_cell_angle_gamma   90.00000000
_symmetry_Int_Tables_number   1
_chemical_formula_structural   Mo
_chemical_formula_sum   Mo16
_cell_volume   192.88534851
_cell_formula_units_Z   16
loop_
 _symmetry_equiv_pos_site_id
 _symmetry_equiv_pos_as_xyz
  1  'x, y, z'
loop_
 _atom_site_type_symbol
 _atom_site_label
 _atom_site_symmetry_multiplicity
 _atom_site_fract_x
 _atom_site_fract_y
 _atom_site_fract_z
 _atom_site_occupancy
  Mo  Mo0  1  0.00808463  -0.05624990  0.04189840  1
  Mo  Mo1  1  1.82939000  1.79257000  -0.03171360  1
  Mo  Mo2  1  1.84576000  7.35381000  1.85752000  1
  Mo  Mo3  1  7.27726000  1.84131000  1.83824000  1
  Mo  Mo4  1  3.66392000  7.22517000  3.68857000  1
  Mo  Mo5  1  5.45816000  1.79618000  3.58928000  1
  Mo  Mo6  1  5.46880000  -0.01620580  1.90150000  1
  Mo  Mo7  1  3.66725000  1.80187000  1.79982000  1
  Mo  Mo8  1  7.25498000  3.65799000  -0.02429280  1
  Mo  Mo9  1  1.81051000  5.49085000  0.01959720  1
  Mo  Mo10  1  1.79202000  3.63755000  1.80119000  1
  Mo  Mo11  1  0.02028670  5.51506000  1.74606000  1
  Mo  Mo12  1  3.61471000  3.61554000  -0.06015880  1
  Mo  Mo13  1  5.43750000  5.43134000  3.68047000  1
  Mo  Mo14  1  5.46473000  3.66477000  1.80144000  1
  Mo  Mo15  1  3.61064000  5.47247000  1.82277000  1
