# generated using pymatgen
data_Mo
_symmetry_space_group_name_H-M   'P 1'
_cell_length_a   7.27808089
_cell_length_b   7.27808089
_cell_length_c   3.63904047
_cell_angle_alpha   90.00000000
_cell_angle_beta   90.00000000
_cell_angle_gamma   90.00000000
_symmetry_Int_Tables_number   1
_chemical_formula_structural   Mo
_chemical_formula_sum   Mo16
_cell_volume   192.76165285
_cell_formula_units_Z   16
loop_
 _symmetry_equiv_pos_site_id
 _symmetry_equiv_pos_as_xyz
  1  'x, y, z'
loop_
 _atom_site_type_symbol
 _atom_site_label
 _atom_site_symmetry_multiplicity
 _atom_site_fract_x
 _atom_site_fract_y
 _atom_site_fract_z
 _atom_site_occupancy
  Mo  Mo0  1  0.00297199  7.26489000  0.00420434  1
  Mo  Mo1  1  1.82095000  1.81950000  -0.00347801  1
  Mo  Mo2  1  1.81279000  7.27012000  1.82817000  1
  Mo  Mo3  1  7.27298000  1.81724000  1.81457000  1
  Mo  Mo4  1  3.62828000  7.27221000  3.63374000  1
  Mo  Mo5  1  5.45197000  1.83093000  -0.00148550  1
  Mo  Mo6  1  5.45823000  0.01191350  1.82293000  1
  Mo  Mo7  1  3.64084000  1.81500000  1.80877000  1
  Mo  Mo8  1  7.28301000  3.63634000  3.63960000  1
  Mo  Mo9  1  1.83199000  5.46023000  3.63416000  1
  Mo  Mo10  1  1.81463000  3.64842000  1.81173000  1
  Mo  Mo11  1  7.29206000  5.45220000  1.82163000  1
  Mo  Mo12  1  3.63205000  3.64156000  0.00726585  1
  Mo  Mo13  1  5.45270000  5.46378000  3.63609000  1
  Mo  Mo14  1  5.46148000  3.64946000  1.82003000  1
  Mo  Mo15  1  3.64516000  5.44830000  1.83408000  1
