# generated using pymatgen
data_Mo
_symmetry_space_group_name_H-M   'P 1'
_cell_length_a   7.27963737
_cell_length_b   7.27963737
_cell_length_c   3.63981867
_cell_angle_alpha   90.00000000
_cell_angle_beta   90.00000000
_cell_angle_gamma   90.00000000
_symmetry_Int_Tables_number   1
_chemical_formula_structural   Mo
_chemical_formula_sum   Mo16
_cell_volume   192.88534851
_cell_formula_units_Z   16
loop_
 _symmetry_equiv_pos_site_id
 _symmetry_equiv_pos_as_xyz
  1  'x, y, z'
loop_
 _atom_site_type_symbol
 _atom_site_label
 _atom_site_symmetry_multiplicity
 _atom_site_fract_x
 _atom_site_fract_y
 _atom_site_fract_z
 _atom_site_occupancy
  Mo  Mo0  1  0.00907890  0.00830155  -0.01404480  1
  Mo  Mo1  1  1.79256000  1.82397000  0.05144300  1
  Mo  Mo2  1  1.82742000  7.30520000  1.77390000  1
  Mo  Mo3  1  7.32852000  1.88106000  1.82190000  1
  Mo  Mo4  1  3.66626000  7.27628000  3.61420000  1
  Mo  Mo5  1  5.46055000  1.79682000  3.70636000  1
  Mo  Mo6  1  5.45229000  -0.02453430  1.78298000  1
  Mo  Mo7  1  3.66082000  1.86852000  1.84310000  1
  Mo  Mo8  1  7.25632000  3.67450000  0.02492800  1
  Mo  Mo9  1  1.82362000  5.46238000  -0.03285620  1
  Mo  Mo10  1  1.76432000  3.63071000  1.84541000  1
  Mo  Mo11  1  -0.00930066  5.40966000  1.83214000  1
  Mo  Mo12  1  3.62299000  3.61879000  -0.00882850  1
  Mo  Mo13  1  5.47728000  5.46853000  3.60822000  1
  Mo  Mo14  1  5.47281000  3.61848000  1.83248000  1
  Mo  Mo15  1  3.61846000  5.40535000  1.79086000  1
