# generated using pymatgen
data_Mo
_symmetry_space_group_name_H-M   'P 1'
_cell_length_a   7.27963737
_cell_length_b   7.27963737
_cell_length_c   3.63981867
_cell_angle_alpha   90.00000000
_cell_angle_beta   90.00000000
_cell_angle_gamma   90.00000000
_symmetry_Int_Tables_number   1
_chemical_formula_structural   Mo
_chemical_formula_sum   Mo16
_cell_volume   192.88534851
_cell_formula_units_Z   16
loop_
 _symmetry_equiv_pos_site_id
 _symmetry_equiv_pos_as_xyz
  1  'x, y, z'
loop_
 _atom_site_type_symbol
 _atom_site_label
 _atom_site_symmetry_multiplicity
 _atom_site_fract_x
 _atom_site_fract_y
 _atom_site_fract_z
 _atom_site_occupancy
  Mo  Mo0  1  -0.00663283  0.04064920  0.04402210  1
  Mo  Mo1  1  1.82405000  1.81248000  0.04308060  1
  Mo  Mo2  1  1.85888000  7.26410000  1.84582000  1
  Mo  Mo3  1  7.24785000  1.80803000  1.88294000  1
  Mo  Mo4  1  3.66286000  7.29807000  3.64744000  1
  Mo  Mo5  1  5.46221000  1.81345000  3.68077000  1
  Mo  Mo6  1  5.42936000  -0.06502850  1.82031000  1
  Mo  Mo7  1  3.65605000  1.77324000  1.77425000  1
  Mo  Mo8  1  7.30242000  3.69702000  -0.01666310  1
  Mo  Mo9  1  1.83223000  5.48600000  -0.04345570  1
  Mo  Mo10  1  1.79168000  3.61777000  1.77140000  1
  Mo  Mo11  1  0.00578758  5.44588000  1.86825000  1
  Mo  Mo12  1  3.62070000  3.64115000  -0.04589490  1
  Mo  Mo13  1  5.45612000  5.47875000  3.60211000  1
  Mo  Mo14  1  5.45186000  3.66865000  1.76078000  1
  Mo  Mo15  1  3.62858000  5.44380000  1.83701000  1
