# generated using pymatgen
data_Mo
_symmetry_space_group_name_H-M   'P 1'
_cell_length_a   7.27963737
_cell_length_b   7.27963737
_cell_length_c   3.63981867
_cell_angle_alpha   90.00000000
_cell_angle_beta   90.00000000
_cell_angle_gamma   90.00000000
_symmetry_Int_Tables_number   1
_chemical_formula_structural   Mo
_chemical_formula_sum   Mo16
_cell_volume   192.88534851
_cell_formula_units_Z   16
loop_
 _symmetry_equiv_pos_site_id
 _symmetry_equiv_pos_as_xyz
  1  'x, y, z'
loop_
 _atom_site_type_symbol
 _atom_site_label
 _atom_site_symmetry_multiplicity
 _atom_site_fract_x
 _atom_site_fract_y
 _atom_site_fract_z
 _atom_site_occupancy
  Mo  Mo0  1  -0.01265070  0.03307600  -0.03099920  1
  Mo  Mo1  1  1.84143000  1.84142000  -0.06147750  1
  Mo  Mo2  1  1.87309000  7.29621000  1.81411000  1
  Mo  Mo3  1  7.30861000  1.82928000  1.74115000  1
  Mo  Mo4  1  3.67483000  7.31687000  3.63637000  1
  Mo  Mo5  1  5.44340000  1.83123000  3.60816000  1
  Mo  Mo6  1  5.42947000  -0.03153550  1.83633000  1
  Mo  Mo7  1  3.65473000  1.80796000  1.87509000  1
  Mo  Mo8  1  7.24818000  3.61289000  -0.03799900  1
  Mo  Mo9  1  1.81987000  5.45494000  0.06052190  1
  Mo  Mo10  1  1.82139000  3.68654000  1.82171000  1
  Mo  Mo11  1  -0.00960617  5.45047000  1.79744000  1
  Mo  Mo12  1  3.60490000  3.60529000  0.02203760  1
  Mo  Mo13  1  5.43192000  5.40154000  3.69926000  1
  Mo  Mo14  1  5.45784000  3.64935000  1.86681000  1
  Mo  Mo15  1  3.63661000  5.43847000  1.82367000  1
