# generated using pymatgen
data_Mo
_symmetry_space_group_name_H-M   'P 1'
_cell_length_a   7.27963737
_cell_length_b   7.27963737
_cell_length_c   3.63981867
_cell_angle_alpha   90.00000000
_cell_angle_beta   90.00000000
_cell_angle_gamma   90.00000000
_symmetry_Int_Tables_number   1
_chemical_formula_structural   Mo
_chemical_formula_sum   Mo16
_cell_volume   192.88534851
_cell_formula_units_Z   16
loop_
 _symmetry_equiv_pos_site_id
 _symmetry_equiv_pos_as_xyz
  1  'x, y, z'
loop_
 _atom_site_type_symbol
 _atom_site_label
 _atom_site_symmetry_multiplicity
 _atom_site_fract_x
 _atom_site_fract_y
 _atom_site_fract_z
 _atom_site_occupancy
  Mo  Mo0  1  -0.02388540  -0.04377020  -0.00679758  1
  Mo  Mo1  1  1.79849000  1.79220000  0.00606250  1
  Mo  Mo2  1  1.80919000  7.29309000  1.83545000  1
  Mo  Mo3  1  7.26315000  1.80812000  1.78266000  1
  Mo  Mo4  1  3.61295000  7.26355000  3.62008000  1
  Mo  Mo5  1  5.42810000  1.85031000  3.63716000  1
  Mo  Mo6  1  5.42100000  0.00117404  1.79093000  1
  Mo  Mo7  1  3.67367000  1.84661000  1.72242000  1
  Mo  Mo8  1  7.28600000  3.64736000  0.03952200  1
  Mo  Mo9  1  1.86068000  5.41339000  -0.00097841  1
  Mo  Mo10  1  1.84249000  3.61864000  1.85987000  1
  Mo  Mo11  1  0.02043760  5.48399000  1.83803000  1
  Mo  Mo12  1  3.63576000  3.62921000  0.02874550  1
  Mo  Mo13  1  5.45456000  5.42318000  3.63160000  1
  Mo  Mo14  1  5.49199000  3.68910000  1.84873000  1
  Mo  Mo15  1  3.64940000  5.50784000  1.83871000  1
