# generated using pymatgen
data_Mo
_symmetry_space_group_name_H-M   'P 1'
_cell_length_a   7.27963737
_cell_length_b   7.27963737
_cell_length_c   3.63981867
_cell_angle_alpha   90.00000000
_cell_angle_beta   90.00000000
_cell_angle_gamma   90.00000000
_symmetry_Int_Tables_number   1
_chemical_formula_structural   Mo
_chemical_formula_sum   Mo16
_cell_volume   192.88534851
_cell_formula_units_Z   16
loop_
 _symmetry_equiv_pos_site_id
 _symmetry_equiv_pos_as_xyz
  1  'x, y, z'
loop_
 _atom_site_type_symbol
 _atom_site_label
 _atom_site_symmetry_multiplicity
 _atom_site_fract_x
 _atom_site_fract_y
 _atom_site_fract_z
 _atom_site_occupancy
  Mo  Mo0  1  -0.03102310  -0.05779060  0.00931923  1
  Mo  Mo1  1  1.84523000  1.75398000  -0.01823700  1
  Mo  Mo2  1  1.79163000  7.33296000  1.80871000  1
  Mo  Mo3  1  7.30163000  1.77594000  1.83296000  1
  Mo  Mo4  1  3.60789000  7.26197000  3.66182000  1
  Mo  Mo5  1  5.45534000  1.79764000  3.63731000  1
  Mo  Mo6  1  5.45502000  0.04919020  1.84114000  1
  Mo  Mo7  1  3.60331000  1.86103000  1.91113000  1
  Mo  Mo8  1  7.28811000  3.63183000  -0.00586454  1
  Mo  Mo9  1  1.81860000  5.44988000  -0.03610780  1
  Mo  Mo10  1  1.82770000  3.63502000  1.80512000  1
  Mo  Mo11  1  -0.00781783  5.47159000  1.80959000  1
  Mo  Mo12  1  3.68579000  3.68136000  0.01177700  1
  Mo  Mo13  1  5.49284000  5.44836000  3.60757000  1
  Mo  Mo14  1  5.46086000  3.62908000  1.83806000  1
  Mo  Mo15  1  3.62889000  5.50196000  1.75789000  1
