# generated using pymatgen
data_Mo
_symmetry_space_group_name_H-M   'P 1'
_cell_length_a   7.27963737
_cell_length_b   7.27963737
_cell_length_c   3.63981867
_cell_angle_alpha   90.00000000
_cell_angle_beta   90.00000000
_cell_angle_gamma   90.00000000
_symmetry_Int_Tables_number   1
_chemical_formula_structural   Mo
_chemical_formula_sum   Mo16
_cell_volume   192.88534851
_cell_formula_units_Z   16
loop_
 _symmetry_equiv_pos_site_id
 _symmetry_equiv_pos_as_xyz
  1  'x, y, z'
loop_
 _atom_site_type_symbol
 _atom_site_label
 _atom_site_symmetry_multiplicity
 _atom_site_fract_x
 _atom_site_fract_y
 _atom_site_fract_z
 _atom_site_occupancy
  Mo  Mo0  1  -0.04231440  0.01706510  0.02537700  1
  Mo  Mo1  1  1.83321000  1.82154000  0.00667749  1
  Mo  Mo2  1  1.81904000  7.25187000  1.81083000  1
  Mo  Mo3  1  7.29694000  1.80398000  1.86060000  1
  Mo  Mo4  1  3.64108000  7.29908000  3.61814000  1
  Mo  Mo5  1  5.44008000  1.84752000  3.64598000  1
  Mo  Mo6  1  5.40255000  0.03030530  1.82547000  1
  Mo  Mo7  1  3.60587000  1.83068000  1.89206000  1
  Mo  Mo8  1  7.31647000  3.61417000  -0.00627615  1
  Mo  Mo9  1  1.84255000  5.43367000  0.01714630  1
  Mo  Mo10  1  1.82553000  3.64245000  1.80436000  1
  Mo  Mo11  1  -0.00477061  5.40568000  1.81292000  1
  Mo  Mo12  1  3.63988000  3.69482000  -0.02438680  1
  Mo  Mo13  1  5.48154000  5.47795000  3.62122000  1
  Mo  Mo14  1  5.47386000  3.59537000  1.80998000  1
  Mo  Mo15  1  3.65247000  5.45786000  1.75209000  1
