# generated using pymatgen
data_Mo
_symmetry_space_group_name_H-M   'P 1'
_cell_length_a   7.27963737
_cell_length_b   7.27963737
_cell_length_c   3.63981867
_cell_angle_alpha   90.00000000
_cell_angle_beta   90.00000000
_cell_angle_gamma   90.00000000
_symmetry_Int_Tables_number   1
_chemical_formula_structural   Mo
_chemical_formula_sum   Mo16
_cell_volume   192.88534851
_cell_formula_units_Z   16
loop_
 _symmetry_equiv_pos_site_id
 _symmetry_equiv_pos_as_xyz
  1  'x, y, z'
loop_
 _atom_site_type_symbol
 _atom_site_label
 _atom_site_symmetry_multiplicity
 _atom_site_fract_x
 _atom_site_fract_y
 _atom_site_fract_z
 _atom_site_occupancy
  Mo  Mo0  1  -0.02984360  0.04460860  0.03303410  1
  Mo  Mo1  1  1.83591000  1.80874000  0.00807505  1
  Mo  Mo2  1  1.84161000  7.25615000  1.83780000  1
  Mo  Mo3  1  7.24020000  1.78688000  1.89213000  1
  Mo  Mo4  1  3.62417000  7.33280000  3.67507000  1
  Mo  Mo5  1  5.44875000  1.80646000  3.69588000  1
  Mo  Mo6  1  5.43967000  -0.04038020  1.84849000  1
  Mo  Mo7  1  3.66270000  1.83180000  1.80305000  1
  Mo  Mo8  1  7.29107000  3.60496000  -0.04555550  1
  Mo  Mo9  1  1.80406000  5.47893000  -0.00595177  1
  Mo  Mo10  1  1.85548000  3.59792000  1.74723000  1
  Mo  Mo11  1  0.03809940  5.43106000  1.77675000  1
  Mo  Mo12  1  3.64115000  3.63919000  -0.02905290  1
  Mo  Mo13  1  5.43787000  5.53932000  3.64695000  1
  Mo  Mo14  1  5.46516000  3.63525000  1.78534000  1
  Mo  Mo15  1  3.62794000  5.47031000  1.80294000  1
