# generated using pymatgen
data_Mo
_symmetry_space_group_name_H-M   'P 1'
_cell_length_a   7.27963737
_cell_length_b   7.27963737
_cell_length_c   3.63981867
_cell_angle_alpha   90.00000000
_cell_angle_beta   90.00000000
_cell_angle_gamma   90.00000000
_symmetry_Int_Tables_number   1
_chemical_formula_structural   Mo
_chemical_formula_sum   Mo16
_cell_volume   192.88534851
_cell_formula_units_Z   16
loop_
 _symmetry_equiv_pos_site_id
 _symmetry_equiv_pos_as_xyz
  1  'x, y, z'
loop_
 _atom_site_type_symbol
 _atom_site_label
 _atom_site_symmetry_multiplicity
 _atom_site_fract_x
 _atom_site_fract_y
 _atom_site_fract_z
 _atom_site_occupancy
  Mo  Mo0  1  0.01137920  0.06459480  0.03800350  1
  Mo  Mo1  1  1.84453000  1.83826000  0.01664000  1
  Mo  Mo2  1  1.86379000  7.22054000  1.88533000  1
  Mo  Mo3  1  7.24951000  1.84395000  1.80214000  1
  Mo  Mo4  1  3.66282000  7.26683000  3.63735000  1
  Mo  Mo5  1  5.41897000  1.81507000  3.65513000  1
  Mo  Mo6  1  5.46119000  -0.00561633  1.83462000  1
  Mo  Mo7  1  3.65419000  1.77442000  1.77094000  1
  Mo  Mo8  1  7.26987000  3.63507000  -0.01740050  1
  Mo  Mo9  1  1.83414000  5.46302000  0.01203940  1
  Mo  Mo10  1  1.81000000  3.67975000  1.80430000  1
  Mo  Mo11  1  -0.04430680  5.45134000  1.87343000  1
  Mo  Mo12  1  3.59052000  3.62875000  -0.05625950  1
  Mo  Mo13  1  5.42663000  5.46192000  3.62411000  1
  Mo  Mo14  1  5.47239000  3.65067000  1.78487000  1
  Mo  Mo15  1  3.69837000  5.43542000  1.80693000  1
