# generated using pymatgen
data_Mo
_symmetry_space_group_name_H-M   'P 1'
_cell_length_a   7.27963737
_cell_length_b   7.27963737
_cell_length_c   3.63981867
_cell_angle_alpha   90.00000000
_cell_angle_beta   90.00000000
_cell_angle_gamma   90.00000000
_symmetry_Int_Tables_number   1
_chemical_formula_structural   Mo
_chemical_formula_sum   Mo16
_cell_volume   192.88534851
_cell_formula_units_Z   16
loop_
 _symmetry_equiv_pos_site_id
 _symmetry_equiv_pos_as_xyz
  1  'x, y, z'
loop_
 _atom_site_type_symbol
 _atom_site_label
 _atom_site_symmetry_multiplicity
 _atom_site_fract_x
 _atom_site_fract_y
 _atom_site_fract_z
 _atom_site_occupancy
  Mo  Mo0  1  -0.01734750  -0.02434800  0.07771650  1
  Mo  Mo1  1  1.82257000  1.78678000  0.03703170  1
  Mo  Mo2  1  1.81501000  7.29075000  1.86261000  1
  Mo  Mo3  1  7.27137000  1.81640000  1.86620000  1
  Mo  Mo4  1  3.64087000  7.22858000  3.66485000  1
  Mo  Mo5  1  5.46160000  1.82488000  3.66366000  1
  Mo  Mo6  1  5.47073000  0.07470440  1.83917000  1
  Mo  Mo7  1  3.60271000  1.86109000  1.76202000  1
  Mo  Mo8  1  7.29373000  3.65316000  0.00757760  1
  Mo  Mo9  1  1.81331000  5.45483000  -0.05252440  1
  Mo  Mo10  1  1.81933000  3.60700000  1.79732000  1
  Mo  Mo11  1  -0.01452390  5.48938000  1.86100000  1
  Mo  Mo12  1  3.66442000  3.65787000  -0.04427170  1
  Mo  Mo13  1  5.48703000  5.44958000  3.58621000  1
  Mo  Mo14  1  5.45237000  3.61262000  1.74316000  1
  Mo  Mo15  1  3.64082000  5.44071000  1.80046000  1
