# generated using pymatgen
data_Mo
_symmetry_space_group_name_H-M   'P 1'
_cell_length_a   7.27963737
_cell_length_b   7.27963737
_cell_length_c   3.63981867
_cell_angle_alpha   90.00000000
_cell_angle_beta   90.00000000
_cell_angle_gamma   90.00000000
_symmetry_Int_Tables_number   1
_chemical_formula_structural   Mo
_chemical_formula_sum   Mo16
_cell_volume   192.88534851
_cell_formula_units_Z   16
loop_
 _symmetry_equiv_pos_site_id
 _symmetry_equiv_pos_as_xyz
  1  'x, y, z'
loop_
 _atom_site_type_symbol
 _atom_site_label
 _atom_site_symmetry_multiplicity
 _atom_site_fract_x
 _atom_site_fract_y
 _atom_site_fract_z
 _atom_site_occupancy
  Mo  Mo0  1  0.01949360  0.00790581  -0.08116030  1
  Mo  Mo1  1  1.84760000  1.85313000  -0.00999797  1
  Mo  Mo2  1  1.82667000  7.26056000  1.81434000  1
  Mo  Mo3  1  7.29027000  1.82434000  1.85148000  1
  Mo  Mo4  1  3.64760000  7.31179000  3.63402000  1
  Mo  Mo5  1  5.48618000  1.84027000  3.62725000  1
  Mo  Mo6  1  5.46059000  0.00688577  1.80244000  1
  Mo  Mo7  1  3.65021000  1.83060000  1.85721000  1
  Mo  Mo8  1  7.24531000  3.64016000  -0.00585565  1
  Mo  Mo9  1  1.83186000  5.45887000  0.00749369  1
  Mo  Mo10  1  1.84266000  3.64132000  1.78542000  1
  Mo  Mo11  1  -0.04742330  5.44845000  1.79242000  1
  Mo  Mo12  1  3.64551000  3.67137000  0.07919480  1
  Mo  Mo13  1  5.44434000  5.41355000  3.68987000  1
  Mo  Mo14  1  5.39464000  3.58733000  1.78055000  1
  Mo  Mo15  1  3.63850000  5.42747000  1.84749000  1
