# generated using pymatgen
data_Mo
_symmetry_space_group_name_H-M   'P 1'
_cell_length_a   7.27808089
_cell_length_b   7.27808089
_cell_length_c   3.63904047
_cell_angle_alpha   90.00000000
_cell_angle_beta   90.00000000
_cell_angle_gamma   90.00000000
_symmetry_Int_Tables_number   1
_chemical_formula_structural   Mo
_chemical_formula_sum   Mo16
_cell_volume   192.76165285
_cell_formula_units_Z   16
loop_
 _symmetry_equiv_pos_site_id
 _symmetry_equiv_pos_as_xyz
  1  'x, y, z'
loop_
 _atom_site_type_symbol
 _atom_site_label
 _atom_site_symmetry_multiplicity
 _atom_site_fract_x
 _atom_site_fract_y
 _atom_site_fract_z
 _atom_site_occupancy
  Mo  Mo0  1  0.00094498  7.28007000  0.00633641  1
  Mo  Mo1  1  1.83045000  1.82907000  0.00584506  1
  Mo  Mo2  1  1.81077000  7.27652000  1.81229000  1
  Mo  Mo3  1  7.29162000  1.81380000  1.83628000  1
  Mo  Mo4  1  3.63387000  7.27433000  3.64959000  1
  Mo  Mo5  1  5.46371000  1.82585000  -0.00127478  1
  Mo  Mo6  1  5.45705000  -0.01170990  1.81091000  1
  Mo  Mo7  1  3.64036000  1.81119000  1.82573000  1
  Mo  Mo8  1  7.28171000  3.64209000  3.64054000  1
  Mo  Mo9  1  1.82612000  5.46401000  3.63545000  1
  Mo  Mo10  1  1.82349000  3.64451000  1.82326000  1
  Mo  Mo11  1  7.26904000  5.45144000  1.81653000  1
  Mo  Mo12  1  3.62255000  3.63596000  -0.01532700  1
  Mo  Mo13  1  5.45319000  5.46347000  3.63966000  1
  Mo  Mo14  1  5.45843000  3.64273000  1.82245000  1
  Mo  Mo15  1  3.63877000  5.45875000  1.80372000  1
