# generated using pymatgen
data_Mo
_symmetry_space_group_name_H-M   'P 1'
_cell_length_a   7.27963737
_cell_length_b   7.27963737
_cell_length_c   3.63981867
_cell_angle_alpha   90.00000000
_cell_angle_beta   90.00000000
_cell_angle_gamma   90.00000000
_symmetry_Int_Tables_number   1
_chemical_formula_structural   Mo
_chemical_formula_sum   Mo16
_cell_volume   192.88534851
_cell_formula_units_Z   16
loop_
 _symmetry_equiv_pos_site_id
 _symmetry_equiv_pos_as_xyz
  1  'x, y, z'
loop_
 _atom_site_type_symbol
 _atom_site_label
 _atom_site_symmetry_multiplicity
 _atom_site_fract_x
 _atom_site_fract_y
 _atom_site_fract_z
 _atom_site_occupancy
  Mo  Mo0  1  -0.02152340  0.00557386  0.01519850  1
  Mo  Mo1  1  1.84694000  1.82143000  -0.04144510  1
  Mo  Mo2  1  1.86900000  7.28740000  1.80310000  1
  Mo  Mo3  1  7.32076000  1.86748000  1.78266000  1
  Mo  Mo4  1  3.70515000  7.20967000  3.64045000  1
  Mo  Mo5  1  5.44892000  1.83608000  3.58585000  1
  Mo  Mo6  1  5.42765000  0.01305330  1.80229000  1
  Mo  Mo7  1  3.61675000  1.80651000  1.84843000  1
  Mo  Mo8  1  7.23406000  3.66472000  0.00818594  1
  Mo  Mo9  1  1.82026000  5.46031000  0.05715800  1
  Mo  Mo10  1  1.80044000  3.64749000  1.81410000  1
  Mo  Mo11  1  -0.02155670  5.47939000  1.85258000  1
  Mo  Mo12  1  3.67039000  3.64532000  0.01246580  1
  Mo  Mo13  1  5.46527000  5.44328000  3.66918000  1
  Mo  Mo14  1  5.39359000  3.58974000  1.81357000  1
  Mo  Mo15  1  3.64788000  5.44657000  1.80840000  1
