# generated using pymatgen
data_Mo
_symmetry_space_group_name_H-M   'P 1'
_cell_length_a   7.27963737
_cell_length_b   7.27963737
_cell_length_c   3.63981867
_cell_angle_alpha   90.00000000
_cell_angle_beta   90.00000000
_cell_angle_gamma   90.00000000
_symmetry_Int_Tables_number   1
_chemical_formula_structural   Mo
_chemical_formula_sum   Mo16
_cell_volume   192.88534851
_cell_formula_units_Z   16
loop_
 _symmetry_equiv_pos_site_id
 _symmetry_equiv_pos_as_xyz
  1  'x, y, z'
loop_
 _atom_site_type_symbol
 _atom_site_label
 _atom_site_symmetry_multiplicity
 _atom_site_fract_x
 _atom_site_fract_y
 _atom_site_fract_z
 _atom_site_occupancy
  Mo  Mo0  1  0.01532030  0.03205490  0.03893620  1
  Mo  Mo1  1  1.79420000  1.80477000  0.01222310  1
  Mo  Mo2  1  1.80011000  7.24900000  1.76809000  1
  Mo  Mo3  1  7.26697000  1.78666000  1.82835000  1
  Mo  Mo4  1  3.62278000  7.29761000  3.58606000  1
  Mo  Mo5  1  5.45111000  1.80812000  3.63181000  1
  Mo  Mo6  1  5.45762000  -0.02834650  1.75479000  1
  Mo  Mo7  1  3.63529000  1.78633000  1.74950000  1
  Mo  Mo8  1  7.28171000  3.67661000  0.02432460  1
  Mo  Mo9  1  1.87189000  5.48830000  0.02074280  1
  Mo  Mo10  1  1.80324000  3.62605000  1.83238000  1
  Mo  Mo11  1  -0.02061810  5.46913000  1.89534000  1
  Mo  Mo12  1  3.65830000  3.61948000  -0.03435740  1
  Mo  Mo13  1  5.48901000  5.52764000  3.66264000  1
  Mo  Mo14  1  5.46475000  3.63566000  1.82753000  1
  Mo  Mo15  1  3.63232000  5.44492000  1.87382000  1
