# generated using pymatgen
data_Mo
_symmetry_space_group_name_H-M   'P 1'
_cell_length_a   7.27963737
_cell_length_b   7.27963737
_cell_length_c   3.63981867
_cell_angle_alpha   90.00000000
_cell_angle_beta   90.00000000
_cell_angle_gamma   90.00000000
_symmetry_Int_Tables_number   1
_chemical_formula_structural   Mo
_chemical_formula_sum   Mo16
_cell_volume   192.88534851
_cell_formula_units_Z   16
loop_
 _symmetry_equiv_pos_site_id
 _symmetry_equiv_pos_as_xyz
  1  'x, y, z'
loop_
 _atom_site_type_symbol
 _atom_site_label
 _atom_site_symmetry_multiplicity
 _atom_site_fract_x
 _atom_site_fract_y
 _atom_site_fract_z
 _atom_site_occupancy
  Mo  Mo0  1  -0.03137960  -0.03510990  -0.01036230  1
  Mo  Mo1  1  1.82204000  1.82645000  -0.05599310  1
  Mo  Mo2  1  1.84573000  7.28107000  1.80777000  1
  Mo  Mo3  1  7.23923000  1.82898000  1.78642000  1
  Mo  Mo4  1  3.64951000  7.31403000  3.64491000  1
  Mo  Mo5  1  5.47826000  1.84146000  3.58474000  1
  Mo  Mo6  1  5.42208000  -0.03631230  1.80668000  1
  Mo  Mo7  1  3.62979000  1.84083000  1.87471000  1
  Mo  Mo8  1  7.31684000  3.64313000  -0.03790200  1
  Mo  Mo9  1  1.81789000  5.48042000  0.06802750  1
  Mo  Mo10  1  1.81732000  3.59268000  1.79515000  1
  Mo  Mo11  1  0.01196180  5.39434000  1.84156000  1
  Mo  Mo12  1  3.65342000  3.66284000  0.01170020  1
  Mo  Mo13  1  5.45899000  5.49210000  3.69085000  1
  Mo  Mo14  1  5.47202000  3.66716000  1.81127000  1
  Mo  Mo15  1  3.62031000  5.42992000  1.85265000  1
