# generated using pymatgen
data_Mo
_symmetry_space_group_name_H-M   'P 1'
_cell_length_a   7.27963737
_cell_length_b   7.27963737
_cell_length_c   3.63981867
_cell_angle_alpha   90.00000000
_cell_angle_beta   90.00000000
_cell_angle_gamma   90.00000000
_symmetry_Int_Tables_number   1
_chemical_formula_structural   Mo
_chemical_formula_sum   Mo16
_cell_volume   192.88534851
_cell_formula_units_Z   16
loop_
 _symmetry_equiv_pos_site_id
 _symmetry_equiv_pos_as_xyz
  1  'x, y, z'
loop_
 _atom_site_type_symbol
 _atom_site_label
 _atom_site_symmetry_multiplicity
 _atom_site_fract_x
 _atom_site_fract_y
 _atom_site_fract_z
 _atom_site_occupancy
  Mo  Mo0  1  -0.02351370  -0.04315750  -0.04260820  1
  Mo  Mo1  1  1.84574000  1.86482000  0.01607560  1
  Mo  Mo2  1  1.79851000  7.30680000  1.79945000  1
  Mo  Mo3  1  7.26929000  1.84840000  1.75175000  1
  Mo  Mo4  1  3.66284000  7.24735000  3.63782000  1
  Mo  Mo5  1  5.44552000  1.79964000  3.67760000  1
  Mo  Mo6  1  5.44480000  -0.02184140  1.79128000  1
  Mo  Mo7  1  3.67700000  1.85204000  1.84986000  1
  Mo  Mo8  1  7.26663000  3.65386000  -0.00832515  1
  Mo  Mo9  1  1.82358000  5.47255000  -0.00274074  1
  Mo  Mo10  1  1.83118000  3.62941000  1.83465000  1
  Mo  Mo11  1  0.00193562  5.43412000  1.78520000  1
  Mo  Mo12  1  3.65979000  3.67340000  0.05820810  1
  Mo  Mo13  1  5.44530000  5.45634000  3.64172000  1
  Mo  Mo14  1  5.48104000  3.63278000  1.84158000  1
  Mo  Mo15  1  3.59436000  5.41749000  1.84068000  1
