# generated using pymatgen
data_Mo
_symmetry_space_group_name_H-M   'P 1'
_cell_length_a   7.27963737
_cell_length_b   7.27963737
_cell_length_c   3.63981867
_cell_angle_alpha   90.00000000
_cell_angle_beta   90.00000000
_cell_angle_gamma   90.00000000
_symmetry_Int_Tables_number   1
_chemical_formula_structural   Mo
_chemical_formula_sum   Mo16
_cell_volume   192.88534851
_cell_formula_units_Z   16
loop_
 _symmetry_equiv_pos_site_id
 _symmetry_equiv_pos_as_xyz
  1  'x, y, z'
loop_
 _atom_site_type_symbol
 _atom_site_label
 _atom_site_symmetry_multiplicity
 _atom_site_fract_x
 _atom_site_fract_y
 _atom_site_fract_z
 _atom_site_occupancy
  Mo  Mo0  1  -0.03117700  -0.02676840  -0.01462980  1
  Mo  Mo1  1  1.83762000  1.80683000  -0.00222736  1
  Mo  Mo2  1  1.81995000  7.26057000  1.87219000  1
  Mo  Mo3  1  7.27597000  1.87290000  1.84897000  1
  Mo  Mo4  1  3.60593000  7.29608000  3.65185000  1
  Mo  Mo5  1  5.42869000  1.79908000  3.62687000  1
  Mo  Mo6  1  5.43623000  0.02417690  1.85822000  1
  Mo  Mo7  1  3.60859000  1.87344000  1.79992000  1
  Mo  Mo8  1  7.26820000  3.62557000  0.00343918  1
  Mo  Mo9  1  1.85559000  5.43891000  0.02816330  1
  Mo  Mo10  1  1.86431000  3.62894000  1.77943000  1
  Mo  Mo11  1  0.02197750  5.42325000  1.77847000  1
  Mo  Mo12  1  3.65721000  3.63430000  0.00755062  1
  Mo  Mo13  1  5.41042000  5.47542000  3.65981000  1
  Mo  Mo14  1  5.48753000  3.66076000  1.78624000  1
  Mo  Mo15  1  3.67696000  5.43053000  1.78793000  1
