# generated using pymatgen
data_Mo
_symmetry_space_group_name_H-M   'P 1'
_cell_length_a   7.27963737
_cell_length_b   7.27963737
_cell_length_c   3.63981867
_cell_angle_alpha   90.00000000
_cell_angle_beta   90.00000000
_cell_angle_gamma   90.00000000
_symmetry_Int_Tables_number   1
_chemical_formula_structural   Mo
_chemical_formula_sum   Mo16
_cell_volume   192.88534851
_cell_formula_units_Z   16
loop_
 _symmetry_equiv_pos_site_id
 _symmetry_equiv_pos_as_xyz
  1  'x, y, z'
loop_
 _atom_site_type_symbol
 _atom_site_label
 _atom_site_symmetry_multiplicity
 _atom_site_fract_x
 _atom_site_fract_y
 _atom_site_fract_z
 _atom_site_occupancy
  Mo  Mo0  1  0.02588280  -0.00998830  -0.08137520  1
  Mo  Mo1  1  1.78298000  1.80257000  0.01746260  1
  Mo  Mo2  1  1.79419000  7.24904000  1.84976000  1
  Mo  Mo3  1  7.29566000  1.79639000  1.87238000  1
  Mo  Mo4  1  3.59517000  7.32814000  3.63498000  1
  Mo  Mo5  1  5.52423000  1.76588000  3.68494000  1
  Mo  Mo6  1  5.46592000  -0.02053370  1.85111000  1
  Mo  Mo7  1  3.65816000  1.83328000  1.93103000  1
  Mo  Mo8  1  7.28575000  3.64263000  -0.04584440  1
  Mo  Mo9  1  1.76695000  5.51176000  -0.01900660  1
  Mo  Mo10  1  1.84078000  3.64902000  1.77910000  1
  Mo  Mo11  1  -0.02081320  5.45073000  1.77429000  1
  Mo  Mo12  1  3.63932000  3.67246000  0.03183850  1
  Mo  Mo13  1  5.46440000  5.49205000  3.62443000  1
  Mo  Mo14  1  5.45196000  3.61044000  1.77899000  1
  Mo  Mo15  1  3.65347000  5.45014000  1.78809000  1
