# generated using pymatgen
data_Mo
_symmetry_space_group_name_H-M   'P 1'
_cell_length_a   7.27963737
_cell_length_b   7.27963737
_cell_length_c   3.63981867
_cell_angle_alpha   90.00000000
_cell_angle_beta   90.00000000
_cell_angle_gamma   90.00000000
_symmetry_Int_Tables_number   1
_chemical_formula_structural   Mo
_chemical_formula_sum   Mo16
_cell_volume   192.88534851
_cell_formula_units_Z   16
loop_
 _symmetry_equiv_pos_site_id
 _symmetry_equiv_pos_as_xyz
  1  'x, y, z'
loop_
 _atom_site_type_symbol
 _atom_site_label
 _atom_site_symmetry_multiplicity
 _atom_site_fract_x
 _atom_site_fract_y
 _atom_site_fract_z
 _atom_site_occupancy
  Mo  Mo0  1  0.00303515  -0.00195198  -0.01612100  1
  Mo  Mo1  1  1.75409000  1.80995000  0.00758030  1
  Mo  Mo2  1  1.80749000  7.22396000  1.85396000  1
  Mo  Mo3  1  7.25319000  1.82199000  1.90562000  1
  Mo  Mo4  1  3.59531000  7.31631000  3.59588000  1
  Mo  Mo5  1  5.50317000  1.80690000  3.63179000  1
  Mo  Mo6  1  5.42810000  0.00547691  1.83083000  1
  Mo  Mo7  1  3.62415000  1.79711000  1.81362000  1
  Mo  Mo8  1  7.29664000  3.65536000  0.01076940  1
  Mo  Mo9  1  1.79547000  5.47620000  0.02439340  1
  Mo  Mo10  1  1.84527000  3.60976000  1.76653000  1
  Mo  Mo11  1  -0.00078597  5.46055000  1.83758000  1
  Mo  Mo12  1  3.65010000  3.65189000  -0.01525240  1
  Mo  Mo13  1  5.51521000  5.50807000  3.67312000  1
  Mo  Mo14  1  5.47245000  3.62287000  1.75490000  1
  Mo  Mo15  1  3.68112000  5.45956000  1.79698000  1
