# generated using pymatgen
data_Mo
_symmetry_space_group_name_H-M   'P 1'
_cell_length_a   7.27963737
_cell_length_b   7.27963737
_cell_length_c   3.63981867
_cell_angle_alpha   90.00000000
_cell_angle_beta   90.00000000
_cell_angle_gamma   90.00000000
_symmetry_Int_Tables_number   1
_chemical_formula_structural   Mo
_chemical_formula_sum   Mo16
_cell_volume   192.88534851
_cell_formula_units_Z   16
loop_
 _symmetry_equiv_pos_site_id
 _symmetry_equiv_pos_as_xyz
  1  'x, y, z'
loop_
 _atom_site_type_symbol
 _atom_site_label
 _atom_site_symmetry_multiplicity
 _atom_site_fract_x
 _atom_site_fract_y
 _atom_site_fract_z
 _atom_site_occupancy
  Mo  Mo0  1  -0.00056876  -0.02445750  0.06648440  1
  Mo  Mo1  1  1.82423000  1.80184000  -0.02301390  1
  Mo  Mo2  1  1.83492000  7.32521000  1.84869000  1
  Mo  Mo3  1  7.24811000  1.81901000  1.81496000  1
  Mo  Mo4  1  3.66539000  7.25071000  3.61309000  1
  Mo  Mo5  1  5.42368000  1.80496000  3.64060000  1
  Mo  Mo6  1  5.42847000  0.06455670  1.86398000  1
  Mo  Mo7  1  3.66291000  1.80137000  1.80410000  1
  Mo  Mo8  1  7.26906000  3.61151000  0.00723183  1
  Mo  Mo9  1  1.87503000  5.42126000  -0.01925820  1
  Mo  Mo10  1  1.80247000  3.58938000  1.80535000  1
  Mo  Mo11  1  0.01894400  5.47204000  1.86433000  1
  Mo  Mo12  1  3.64486000  3.65816000  -0.05479150  1
  Mo  Mo13  1  5.45826000  5.46717000  3.62037000  1
  Mo  Mo14  1  5.45435000  3.66473000  1.82352000  1
  Mo  Mo15  1  3.61388000  5.49654000  1.79654000  1
