# generated using pymatgen
data_Mo
_symmetry_space_group_name_H-M   'P 1'
_cell_length_a   7.27808089
_cell_length_b   7.27808089
_cell_length_c   3.63904047
_cell_angle_alpha   90.00000000
_cell_angle_beta   90.00000000
_cell_angle_gamma   90.00000000
_symmetry_Int_Tables_number   1
_chemical_formula_structural   Mo
_chemical_formula_sum   Mo16
_cell_volume   192.76165285
_cell_formula_units_Z   16
loop_
 _symmetry_equiv_pos_site_id
 _symmetry_equiv_pos_as_xyz
  1  'x, y, z'
loop_
 _atom_site_type_symbol
 _atom_site_label
 _atom_site_symmetry_multiplicity
 _atom_site_fract_x
 _atom_site_fract_y
 _atom_site_fract_z
 _atom_site_occupancy
  Mo  Mo0  1  0.00354323  7.27611000  -0.00851899  1
  Mo  Mo1  1  1.81462000  1.82255000  0.00165393  1
  Mo  Mo2  1  1.82182000  7.26428000  1.82555000  1
  Mo  Mo3  1  7.27786000  1.81521000  1.82040000  1
  Mo  Mo4  1  3.63762000  7.28174000  3.63935000  1
  Mo  Mo5  1  5.45686000  1.82901000  -0.00497037  1
  Mo  Mo6  1  5.44191000  -0.00493556  1.81693000  1
  Mo  Mo7  1  3.63733000  1.82032000  1.81589000  1
  Mo  Mo8  1  7.27359000  3.64165000  3.64275000  1
  Mo  Mo9  1  1.81828000  5.45652000  3.63765000  1
  Mo  Mo10  1  1.82080000  3.63788000  1.80758000  1
  Mo  Mo11  1  7.29094000  5.45489000  1.82140000  1
  Mo  Mo12  1  3.63931000  3.63978000  -0.00144436  1
  Mo  Mo13  1  5.47269000  5.46483000  3.64310000  1
  Mo  Mo14  1  5.45512000  3.65066000  1.82361000  1
  Mo  Mo15  1  3.63979000  5.45160000  1.83108000  1
