# generated using pymatgen
data_Mo
_symmetry_space_group_name_H-M   'P 1'
_cell_length_a   7.27963737
_cell_length_b   7.27963737
_cell_length_c   3.63981867
_cell_angle_alpha   90.00000000
_cell_angle_beta   90.00000000
_cell_angle_gamma   90.00000000
_symmetry_Int_Tables_number   1
_chemical_formula_structural   Mo
_chemical_formula_sum   Mo16
_cell_volume   192.88534851
_cell_formula_units_Z   16
loop_
 _symmetry_equiv_pos_site_id
 _symmetry_equiv_pos_as_xyz
  1  'x, y, z'
loop_
 _atom_site_type_symbol
 _atom_site_label
 _atom_site_symmetry_multiplicity
 _atom_site_fract_x
 _atom_site_fract_y
 _atom_site_fract_z
 _atom_site_occupancy
  Mo  Mo0  1  -0.04671950  -0.02215080  0.08313940  1
  Mo  Mo1  1  1.82714000  1.79623000  0.00057609  1
  Mo  Mo2  1  1.84414000  7.28486000  1.86429000  1
  Mo  Mo3  1  7.28472000  1.83130000  1.91850000  1
  Mo  Mo4  1  3.68171000  7.21724000  3.66793000  1
  Mo  Mo5  1  5.44702000  1.80865000  3.60601000  1
  Mo  Mo6  1  5.43377000  0.05542510  1.85683000  1
  Mo  Mo7  1  3.61120000  1.82028000  1.80183000  1
  Mo  Mo8  1  7.26849000  3.65135000  -0.00545844  1
  Mo  Mo9  1  1.83908000  5.42900000  -0.00006816  1
  Mo  Mo10  1  1.81403000  3.65274000  1.77871000  1
  Mo  Mo11  1  0.00006137  5.47711000  1.79513000  1
  Mo  Mo12  1  3.66406000  3.67066000  -0.07805610  1
  Mo  Mo13  1  5.48566000  5.46940000  3.61453000  1
  Mo  Mo14  1  5.42440000  3.60656000  1.77089000  1
  Mo  Mo15  1  3.64525000  5.47535000  1.79740000  1
