# generated using pymatgen
data_Mo
_symmetry_space_group_name_H-M   'P 1'
_cell_length_a   7.27963737
_cell_length_b   7.27963737
_cell_length_c   3.63981867
_cell_angle_alpha   90.00000000
_cell_angle_beta   90.00000000
_cell_angle_gamma   90.00000000
_symmetry_Int_Tables_number   1
_chemical_formula_structural   Mo
_chemical_formula_sum   Mo16
_cell_volume   192.88534851
_cell_formula_units_Z   16
loop_
 _symmetry_equiv_pos_site_id
 _symmetry_equiv_pos_as_xyz
  1  'x, y, z'
loop_
 _atom_site_type_symbol
 _atom_site_label
 _atom_site_symmetry_multiplicity
 _atom_site_fract_x
 _atom_site_fract_y
 _atom_site_fract_z
 _atom_site_occupancy
  Mo  Mo0  1  0.00384414  0.00601627  0.00532226  1
  Mo  Mo1  1  1.84595000  1.81869000  -0.03226690  1
  Mo  Mo2  1  1.75780000  7.24584000  1.86110000  1
  Mo  Mo3  1  7.29956000  1.83306000  1.90498000  1
  Mo  Mo4  1  3.64597000  7.27815000  3.60625000  1
  Mo  Mo5  1  5.41888000  1.81526000  3.60071000  1
  Mo  Mo6  1  5.47691000  0.03084510  1.83656000  1
  Mo  Mo7  1  3.59149000  1.78304000  1.79680000  1
  Mo  Mo8  1  7.29321000  3.65293000  0.02955740  1
  Mo  Mo9  1  1.87299000  5.44250000  -0.01003090  1
  Mo  Mo10  1  1.80150000  3.63757000  1.78834000  1
  Mo  Mo11  1  -0.00129625  5.48654000  1.86033000  1
  Mo  Mo12  1  3.65241000  3.65554000  0.00159743  1
  Mo  Mo13  1  5.46086000  5.46360000  3.66637000  1
  Mo  Mo14  1  5.45034000  3.62024000  1.76699000  1
  Mo  Mo15  1  3.65359000  5.45419000  1.78958000  1
