# generated using pymatgen
data_Mo
_symmetry_space_group_name_H-M   'P 1'
_cell_length_a   7.27963737
_cell_length_b   7.27963737
_cell_length_c   3.63981867
_cell_angle_alpha   90.00000000
_cell_angle_beta   90.00000000
_cell_angle_gamma   90.00000000
_symmetry_Int_Tables_number   1
_chemical_formula_structural   Mo
_chemical_formula_sum   Mo16
_cell_volume   192.88534851
_cell_formula_units_Z   16
loop_
 _symmetry_equiv_pos_site_id
 _symmetry_equiv_pos_as_xyz
  1  'x, y, z'
loop_
 _atom_site_type_symbol
 _atom_site_label
 _atom_site_symmetry_multiplicity
 _atom_site_fract_x
 _atom_site_fract_y
 _atom_site_fract_z
 _atom_site_occupancy
  Mo  Mo0  1  -0.02883580  -0.00263499  -0.02388230  1
  Mo  Mo1  1  1.82519000  1.85476000  -0.00114702  1
  Mo  Mo2  1  1.82392000  7.27569000  1.80530000  1
  Mo  Mo3  1  7.24963000  1.81258000  1.82348000  1
  Mo  Mo4  1  3.61126000  7.27955000  3.68277000  1
  Mo  Mo5  1  5.48208000  1.82650000  3.64137000  1
  Mo  Mo6  1  5.42556000  -0.04262240  1.84973000  1
  Mo  Mo7  1  3.68768000  1.84421000  1.91979000  1
  Mo  Mo8  1  7.31281000  3.61851000  -0.03831290  1
  Mo  Mo9  1  1.79939000  5.40031000  -0.04859330  1
  Mo  Mo10  1  1.81662000  3.67284000  1.81356000  1
  Mo  Mo11  1  0.00448493  5.43353000  1.80163000  1
  Mo  Mo12  1  3.66209000  3.66169000  0.01906700  1
  Mo  Mo13  1  5.44845000  5.42969000  3.61988000  1
  Mo  Mo14  1  5.47509000  3.66614000  1.82478000  1
  Mo  Mo15  1  3.62861000  5.49324000  1.78277000  1
