# generated using pymatgen
data_Mo
_symmetry_space_group_name_H-M   'P 1'
_cell_length_a   7.27963737
_cell_length_b   7.27963737
_cell_length_c   3.63981867
_cell_angle_alpha   90.00000000
_cell_angle_beta   90.00000000
_cell_angle_gamma   90.00000000
_symmetry_Int_Tables_number   1
_chemical_formula_structural   Mo
_chemical_formula_sum   Mo16
_cell_volume   192.88534851
_cell_formula_units_Z   16
loop_
 _symmetry_equiv_pos_site_id
 _symmetry_equiv_pos_as_xyz
  1  'x, y, z'
loop_
 _atom_site_type_symbol
 _atom_site_label
 _atom_site_symmetry_multiplicity
 _atom_site_fract_x
 _atom_site_fract_y
 _atom_site_fract_z
 _atom_site_occupancy
  Mo  Mo0  1  0.01708850  0.04900960  0.01856520  1
  Mo  Mo1  1  1.79997000  1.84174000  0.03329390  1
  Mo  Mo2  1  1.80178000  7.29446000  1.85744000  1
  Mo  Mo3  1  7.27842000  1.80913000  1.84129000  1
  Mo  Mo4  1  3.65857000  7.30038000  3.66207000  1
  Mo  Mo5  1  5.47507000  1.85243000  3.67798000  1
  Mo  Mo6  1  5.50077000  -0.05019780  1.85722000  1
  Mo  Mo7  1  3.68295000  1.83658000  1.77866000  1
  Mo  Mo8  1  7.25245000  3.64826000  -0.02571260  1
  Mo  Mo9  1  1.82438000  5.44589000  -0.05848120  1
  Mo  Mo10  1  1.78777000  3.64969000  1.79534000  1
  Mo  Mo11  1  0.03419930  5.48774000  1.81721000  1
  Mo  Mo12  1  3.61560000  3.58927000  -0.02620880  1
  Mo  Mo13  1  5.44149000  5.38187000  3.60482000  1
  Mo  Mo14  1  5.45930000  3.66151000  1.80348000  1
  Mo  Mo15  1  3.59419000  5.42623000  1.83521000  1
