# generated using pymatgen
data_Mo
_symmetry_space_group_name_H-M   'P 1'
_cell_length_a   7.27963737
_cell_length_b   7.27963737
_cell_length_c   3.63981867
_cell_angle_alpha   90.00000000
_cell_angle_beta   90.00000000
_cell_angle_gamma   90.00000000
_symmetry_Int_Tables_number   1
_chemical_formula_structural   Mo
_chemical_formula_sum   Mo16
_cell_volume   192.88534851
_cell_formula_units_Z   16
loop_
 _symmetry_equiv_pos_site_id
 _symmetry_equiv_pos_as_xyz
  1  'x, y, z'
loop_
 _atom_site_type_symbol
 _atom_site_label
 _atom_site_symmetry_multiplicity
 _atom_site_fract_x
 _atom_site_fract_y
 _atom_site_fract_z
 _atom_site_occupancy
  Mo  Mo0  1  -0.02257310  -0.01378360  -0.05145270  1
  Mo  Mo1  1  1.86755000  1.85795000  -0.01009550  1
  Mo  Mo2  1  1.79234000  7.27013000  1.84989000  1
  Mo  Mo3  1  7.30380000  1.83679000  1.88842000  1
  Mo  Mo4  1  3.63312000  7.32406000  3.65425000  1
  Mo  Mo5  1  5.43865000  1.81433000  3.68134000  1
  Mo  Mo6  1  5.40533000  0.00962950  1.84840000  1
  Mo  Mo7  1  3.62834000  1.80973000  1.91298000  1
  Mo  Mo8  1  7.30829000  3.63376000  -0.02060710  1
  Mo  Mo9  1  1.84938000  5.44086000  -0.03239660  1
  Mo  Mo10  1  1.82777000  3.64537000  1.76923000  1
  Mo  Mo11  1  -0.03911950  5.41068000  1.79447000  1
  Mo  Mo12  1  3.67293000  3.68446000  0.03163340  1
  Mo  Mo13  1  5.44014000  5.42627000  3.61175000  1
  Mo  Mo14  1  5.46729000  3.60010000  1.76450000  1
  Mo  Mo15  1  3.65073000  5.47368000  1.77988000  1
