# generated using pymatgen
data_Mo
_symmetry_space_group_name_H-M   'P 1'
_cell_length_a   7.27963737
_cell_length_b   7.27963737
_cell_length_c   3.63981867
_cell_angle_alpha   90.00000000
_cell_angle_beta   90.00000000
_cell_angle_gamma   90.00000000
_symmetry_Int_Tables_number   1
_chemical_formula_structural   Mo
_chemical_formula_sum   Mo16
_cell_volume   192.88534851
_cell_formula_units_Z   16
loop_
 _symmetry_equiv_pos_site_id
 _symmetry_equiv_pos_as_xyz
  1  'x, y, z'
loop_
 _atom_site_type_symbol
 _atom_site_label
 _atom_site_symmetry_multiplicity
 _atom_site_fract_x
 _atom_site_fract_y
 _atom_site_fract_z
 _atom_site_occupancy
  Mo  Mo0  1  -0.02700520  -0.00358470  0.02101850  1
  Mo  Mo1  1  1.76471000  1.77652000  0.01396020  1
  Mo  Mo2  1  1.80812000  7.29833000  1.81075000  1
  Mo  Mo3  1  7.29640000  1.84515000  1.81520000  1
  Mo  Mo4  1  3.63532000  7.26675000  3.58169000  1
  Mo  Mo5  1  5.43252000  1.80993000  3.63466000  1
  Mo  Mo6  1  5.41607000  0.03103200  1.77804000  1
  Mo  Mo7  1  3.64761000  1.87344000  1.72526000  1
  Mo  Mo8  1  7.27924000  3.66650000  0.04212430  1
  Mo  Mo9  1  1.85410000  5.43579000  0.01566890  1
  Mo  Mo10  1  1.83167000  3.61080000  1.85108000  1
  Mo  Mo11  1  0.03419930  5.44254000  1.87265000  1
  Mo  Mo12  1  3.65346000  3.63094000  -0.02064860  1
  Mo  Mo13  1  5.49030000  5.48520000  3.65503000  1
  Mo  Mo14  1  5.47607000  3.63772000  1.83763000  1
  Mo  Mo15  1  3.63123000  5.41696000  1.83807000  1
