# generated using pymatgen
data_Mo
_symmetry_space_group_name_H-M   'P 1'
_cell_length_a   7.27963737
_cell_length_b   7.27963737
_cell_length_c   3.63981867
_cell_angle_alpha   90.00000000
_cell_angle_beta   90.00000000
_cell_angle_gamma   90.00000000
_symmetry_Int_Tables_number   1
_chemical_formula_structural   Mo
_chemical_formula_sum   Mo16
_cell_volume   192.88534851
_cell_formula_units_Z   16
loop_
 _symmetry_equiv_pos_site_id
 _symmetry_equiv_pos_as_xyz
  1  'x, y, z'
loop_
 _atom_site_type_symbol
 _atom_site_label
 _atom_site_symmetry_multiplicity
 _atom_site_fract_x
 _atom_site_fract_y
 _atom_site_fract_z
 _atom_site_occupancy
  Mo  Mo0  1  -0.02399000  -0.04340250  0.02902090  1
  Mo  Mo1  1  1.77287000  1.80286000  -0.06586910  1
  Mo  Mo2  1  1.81866000  7.29015000  1.85467000  1
  Mo  Mo3  1  7.25974000  1.81937000  1.79094000  1
  Mo  Mo4  1  3.62577000  7.26363000  3.60289000  1
  Mo  Mo5  1  5.46870000  1.79622000  3.56710000  1
  Mo  Mo6  1  5.42776000  0.04098900  1.84960000  1
  Mo  Mo7  1  3.60040000  1.78467000  1.75846000  1
  Mo  Mo8  1  7.29261000  3.64451000  0.04304630  1
  Mo  Mo9  1  1.79433000  5.41298000  0.06063360  1
  Mo  Mo10  1  1.82122000  3.62031000  1.83796000  1
  Mo  Mo11  1  0.04904630  5.50945000  1.87615000  1
  Mo  Mo12  1  3.66267000  3.62389000  0.01614960  1
  Mo  Mo13  1  5.46302000  5.47465000  3.67641000  1
  Mo  Mo14  1  5.50105000  3.67777000  1.81061000  1
  Mo  Mo15  1  3.69015000  5.50597000  1.76442000  1
