# generated using pymatgen
data_Mo
_symmetry_space_group_name_H-M   'P 1'
_cell_length_a   7.27963737
_cell_length_b   7.27963737
_cell_length_c   3.63981867
_cell_angle_alpha   90.00000000
_cell_angle_beta   90.00000000
_cell_angle_gamma   90.00000000
_symmetry_Int_Tables_number   1
_chemical_formula_structural   Mo
_chemical_formula_sum   Mo16
_cell_volume   192.88534851
_cell_formula_units_Z   16
loop_
 _symmetry_equiv_pos_site_id
 _symmetry_equiv_pos_as_xyz
  1  'x, y, z'
loop_
 _atom_site_type_symbol
 _atom_site_label
 _atom_site_symmetry_multiplicity
 _atom_site_fract_x
 _atom_site_fract_y
 _atom_site_fract_z
 _atom_site_occupancy
  Mo  Mo0  1  -0.00165592  -0.04648810  -0.00572790  1
  Mo  Mo1  1  1.78641000  1.84069000  -0.02492380  1
  Mo  Mo2  1  1.80602000  7.29171000  1.86999000  1
  Mo  Mo3  1  7.26268000  1.79074000  1.81554000  1
  Mo  Mo4  1  3.63252000  7.28424000  3.70910000  1
  Mo  Mo5  1  5.51208000  1.83152000  3.60656000  1
  Mo  Mo6  1  5.46629000  0.02822750  1.87045000  1
  Mo  Mo7  1  3.63510000  1.82498000  1.81051000  1
  Mo  Mo8  1  7.28362000  3.62182000  -0.01793190  1
  Mo  Mo9  1  1.76785000  5.41934000  0.00788734  1
  Mo  Mo10  1  1.81677000  3.64493000  1.78252000  1
  Mo  Mo11  1  0.02895210  5.49170000  1.74878000  1
  Mo  Mo12  1  3.65908000  3.64675000  0.02657110  1
  Mo  Mo13  1  5.44508000  5.41280000  3.65685000  1
  Mo  Mo14  1  5.47381000  3.65878000  1.79758000  1
  Mo  Mo15  1  3.64939000  5.48226000  1.81843000  1
