# generated using pymatgen
data_Mo
_symmetry_space_group_name_H-M   'P 1'
_cell_length_a   7.27963737
_cell_length_b   7.27963737
_cell_length_c   3.63981867
_cell_angle_alpha   90.00000000
_cell_angle_beta   90.00000000
_cell_angle_gamma   90.00000000
_symmetry_Int_Tables_number   1
_chemical_formula_structural   Mo
_chemical_formula_sum   Mo16
_cell_volume   192.88534851
_cell_formula_units_Z   16
loop_
 _symmetry_equiv_pos_site_id
 _symmetry_equiv_pos_as_xyz
  1  'x, y, z'
loop_
 _atom_site_type_symbol
 _atom_site_label
 _atom_site_symmetry_multiplicity
 _atom_site_fract_x
 _atom_site_fract_y
 _atom_site_fract_z
 _atom_site_occupancy
  Mo  Mo0  1  -0.02925620  -0.00733926  -0.07611920  1
  Mo  Mo1  1  1.85667000  1.82733000  -0.02455320  1
  Mo  Mo2  1  1.82128000  7.27680000  1.74292000  1
  Mo  Mo3  1  7.32488000  1.80913000  1.82194000  1
  Mo  Mo4  1  3.66919000  7.26964000  3.63441000  1
  Mo  Mo5  1  5.43714000  1.84990000  3.61318000  1
  Mo  Mo6  1  5.42099000  0.01181890  1.77420000  1
  Mo  Mo7  1  3.61834000  1.86031000  1.84288000  1
  Mo  Mo8  1  7.26346000  3.63464000  0.02837030  1
  Mo  Mo9  1  1.81532000  5.46408000  0.01979110  1
  Mo  Mo10  1  1.84248000  3.64731000  1.83805000  1
  Mo  Mo11  1  -0.01747030  5.45511000  1.75186000  1
  Mo  Mo12  1  3.68314000  3.66919000  0.07294740  1
  Mo  Mo13  1  5.46933000  5.43847000  3.68443000  1
  Mo  Mo14  1  5.40331000  3.58000000  1.87513000  1
  Mo  Mo15  1  3.64519000  5.43763000  1.87275000  1
