# generated using pymatgen
data_Mo
_symmetry_space_group_name_H-M   'P 1'
_cell_length_a   7.27963737
_cell_length_b   7.27963737
_cell_length_c   3.63981867
_cell_angle_alpha   90.00000000
_cell_angle_beta   90.00000000
_cell_angle_gamma   90.00000000
_symmetry_Int_Tables_number   1
_chemical_formula_structural   Mo
_chemical_formula_sum   Mo16
_cell_volume   192.88534851
_cell_formula_units_Z   16
loop_
 _symmetry_equiv_pos_site_id
 _symmetry_equiv_pos_as_xyz
  1  'x, y, z'
loop_
 _atom_site_type_symbol
 _atom_site_label
 _atom_site_symmetry_multiplicity
 _atom_site_fract_x
 _atom_site_fract_y
 _atom_site_fract_z
 _atom_site_occupancy
  Mo  Mo0  1  0.00185190  0.03020410  0.04159210  1
  Mo  Mo1  1  1.80938000  1.79284000  0.02260370  1
  Mo  Mo2  1  1.77345000  7.20723000  1.84353000  1
  Mo  Mo3  1  7.29235000  1.77101000  1.86134000  1
  Mo  Mo4  1  3.60822000  7.32603000  3.59178000  1
  Mo  Mo5  1  5.42922000  1.87905000  3.64303000  1
  Mo  Mo6  1  5.44763000  -0.01822490  1.81356000  1
  Mo  Mo7  1  3.63829000  1.82581000  1.87303000  1
  Mo  Mo8  1  7.28782000  3.59968000  -0.00153210  1
  Mo  Mo9  1  1.80087000  5.47490000  0.03975790  1
  Mo  Mo10  1  1.82483000  3.64957000  1.81233000  1
  Mo  Mo11  1  -0.01411100  5.46754000  1.81523000  1
  Mo  Mo12  1  3.63834000  3.63641000  -0.04981600  1
  Mo  Mo13  1  5.49318000  5.48017000  3.62569000  1
  Mo  Mo14  1  5.50171000  3.65439000  1.82062000  1
  Mo  Mo15  1  3.69097000  5.44738000  1.71945000  1
