# generated using pymatgen
data_Mo
_symmetry_space_group_name_H-M   'P 1'
_cell_length_a   7.27808089
_cell_length_b   7.27808089
_cell_length_c   3.63904047
_cell_angle_alpha   90.00000000
_cell_angle_beta   90.00000000
_cell_angle_gamma   90.00000000
_symmetry_Int_Tables_number   1
_chemical_formula_structural   Mo
_chemical_formula_sum   Mo16
_cell_volume   192.76165285
_cell_formula_units_Z   16
loop_
 _symmetry_equiv_pos_site_id
 _symmetry_equiv_pos_as_xyz
  1  'x, y, z'
loop_
 _atom_site_type_symbol
 _atom_site_label
 _atom_site_symmetry_multiplicity
 _atom_site_fract_x
 _atom_site_fract_y
 _atom_site_fract_z
 _atom_site_occupancy
  Mo  Mo0  1  0.00302517  7.27658000  0.00716129  1
  Mo  Mo1  1  1.82375000  1.82750000  -0.00107940  1
  Mo  Mo2  1  1.80588000  7.28976000  1.81734000  1
  Mo  Mo3  1  7.28078000  1.80978000  1.83434000  1
  Mo  Mo4  1  3.64619000  7.27189000  3.64495000  1
  Mo  Mo5  1  5.46221000  1.82345000  -0.00734013  1
  Mo  Mo6  1  5.45430000  0.00959174  1.80569000  1
  Mo  Mo7  1  3.65763000  1.81583000  1.82143000  1
  Mo  Mo8  1  7.26185000  3.63997000  3.62959000  1
  Mo  Mo9  1  1.82389000  5.47605000  3.63911000  1
  Mo  Mo10  1  1.81564000  3.64090000  1.82100000  1
  Mo  Mo11  1  7.27639000  5.45171000  1.81174000  1
  Mo  Mo12  1  3.63135000  3.63126000  -0.00095505  1
  Mo  Mo13  1  5.45412000  5.46255000  3.63704000  1
  Mo  Mo14  1  5.46797000  3.62205000  1.83438000  1
  Mo  Mo15  1  3.63710000  5.45323000  1.81760000  1
