# generated using pymatgen
data_Mo
_symmetry_space_group_name_H-M   'P 1'
_cell_length_a   7.27963737
_cell_length_b   7.27963737
_cell_length_c   3.63981867
_cell_angle_alpha   90.00000000
_cell_angle_beta   90.00000000
_cell_angle_gamma   90.00000000
_symmetry_Int_Tables_number   1
_chemical_formula_structural   Mo
_chemical_formula_sum   Mo16
_cell_volume   192.88534851
_cell_formula_units_Z   16
loop_
 _symmetry_equiv_pos_site_id
 _symmetry_equiv_pos_as_xyz
  1  'x, y, z'
loop_
 _atom_site_type_symbol
 _atom_site_label
 _atom_site_symmetry_multiplicity
 _atom_site_fract_x
 _atom_site_fract_y
 _atom_site_fract_z
 _atom_site_occupancy
  Mo  Mo0  1  -0.02185060  0.00864532  -0.02388420  1
  Mo  Mo1  1  1.82474000  1.79980000  0.04681910  1
  Mo  Mo2  1  1.81395000  7.24729000  1.79568000  1
  Mo  Mo3  1  7.23215000  1.77983000  1.84924000  1
  Mo  Mo4  1  3.63703000  7.29618000  3.59945000  1
  Mo  Mo5  1  5.44364000  1.84504000  3.67898000  1
  Mo  Mo6  1  5.41738000  -0.00240571  1.76769000  1
  Mo  Mo7  1  3.65105000  1.84297000  1.82594000  1
  Mo  Mo8  1  7.33186000  3.66715000  0.03936660  1
  Mo  Mo9  1  1.85776000  5.45757000  -0.04833710  1
  Mo  Mo10  1  1.84079000  3.60017000  1.84523000  1
  Mo  Mo11  1  0.01295710  5.43534000  1.88863000  1
  Mo  Mo12  1  3.65863000  3.68090000  0.01304310  1
  Mo  Mo13  1  5.44409000  5.47525000  3.57330000  1
  Mo  Mo14  1  5.43437000  3.65907000  1.82020000  1
  Mo  Mo15  1  3.64545000  5.43120000  1.80083000  1
