# generated using pymatgen
data_Mo
_symmetry_space_group_name_H-M   'P 1'
_cell_length_a   7.27963737
_cell_length_b   7.27963737
_cell_length_c   3.63981867
_cell_angle_alpha   90.00000000
_cell_angle_beta   90.00000000
_cell_angle_gamma   90.00000000
_symmetry_Int_Tables_number   1
_chemical_formula_structural   Mo
_chemical_formula_sum   Mo16
_cell_volume   192.88534851
_cell_formula_units_Z   16
loop_
 _symmetry_equiv_pos_site_id
 _symmetry_equiv_pos_as_xyz
  1  'x, y, z'
loop_
 _atom_site_type_symbol
 _atom_site_label
 _atom_site_symmetry_multiplicity
 _atom_site_fract_x
 _atom_site_fract_y
 _atom_site_fract_z
 _atom_site_occupancy
  Mo  Mo0  1  0.02449670  0.04578740  0.06382750  1
  Mo  Mo1  1  1.84292000  1.79665000  0.01235550  1
  Mo  Mo2  1  1.81030000  7.24633000  1.86065000  1
  Mo  Mo3  1  7.30350000  1.79995000  1.90841000  1
  Mo  Mo4  1  3.61655000  7.29049000  3.64888000  1
  Mo  Mo5  1  5.44923000  1.86123000  3.60335000  1
  Mo  Mo6  1  5.46637000  0.00686925  1.86012000  1
  Mo  Mo7  1  3.61015000  1.79333000  1.80644000  1
  Mo  Mo8  1  7.28682000  3.65664000  -0.01996560  1
  Mo  Mo9  1  1.81489000  5.48231000  0.03272270  1
  Mo  Mo10  1  1.79865000  3.64710000  1.77831000  1
  Mo  Mo11  1  -0.03585370  5.45361000  1.80346000  1
  Mo  Mo12  1  3.60226000  3.65814000  -0.10790100  1
  Mo  Mo13  1  5.49456000  5.46485000  3.65180000  1
  Mo  Mo14  1  5.47432000  3.60468000  1.76475000  1
  Mo  Mo15  1  3.66484000  5.41604000  1.80498000  1
