# generated using pymatgen
data_Mo
_symmetry_space_group_name_H-M   'P 1'
_cell_length_a   7.27963737
_cell_length_b   7.27963737
_cell_length_c   3.63981867
_cell_angle_alpha   90.00000000
_cell_angle_beta   90.00000000
_cell_angle_gamma   90.00000000
_symmetry_Int_Tables_number   1
_chemical_formula_structural   Mo
_chemical_formula_sum   Mo16
_cell_volume   192.88534851
_cell_formula_units_Z   16
loop_
 _symmetry_equiv_pos_site_id
 _symmetry_equiv_pos_as_xyz
  1  'x, y, z'
loop_
 _atom_site_type_symbol
 _atom_site_label
 _atom_site_symmetry_multiplicity
 _atom_site_fract_x
 _atom_site_fract_y
 _atom_site_fract_z
 _atom_site_occupancy
  Mo  Mo0  1  0.02093240  0.04228120  -0.01321070  1
  Mo  Mo1  1  1.81961000  1.81707000  -0.01193920  1
  Mo  Mo2  1  1.83030000  7.26700000  1.81955000  1
  Mo  Mo3  1  7.25637000  1.76455000  1.74355000  1
  Mo  Mo4  1  3.64700000  7.32483000  3.70005000  1
  Mo  Mo5  1  5.49362000  1.82223000  3.66611000  1
  Mo  Mo6  1  5.47835000  -0.09364310  1.83766000  1
  Mo  Mo7  1  3.67641000  1.80249000  1.81836000  1
  Mo  Mo8  1  7.27232000  3.66294000  -0.05752850  1
  Mo  Mo9  1  1.80660000  5.53042000  -0.00600364  1
  Mo  Mo10  1  1.80201000  3.63459000  1.76948000  1
  Mo  Mo11  1  0.00600430  5.47784000  1.88762000  1
  Mo  Mo12  1  3.62370000  3.62510000  0.00732570  1
  Mo  Mo13  1  5.45955000  5.45056000  3.66001000  1
  Mo  Mo14  1  5.43673000  3.64944000  1.76700000  1
  Mo  Mo15  1  3.59449000  5.44629000  1.88415000  1
