# generated using pymatgen
data_Mo
_symmetry_space_group_name_H-M   'P 1'
_cell_length_a   7.27963737
_cell_length_b   7.27963737
_cell_length_c   3.63981867
_cell_angle_alpha   90.00000000
_cell_angle_beta   90.00000000
_cell_angle_gamma   90.00000000
_symmetry_Int_Tables_number   1
_chemical_formula_structural   Mo
_chemical_formula_sum   Mo16
_cell_volume   192.88534851
_cell_formula_units_Z   16
loop_
 _symmetry_equiv_pos_site_id
 _symmetry_equiv_pos_as_xyz
  1  'x, y, z'
loop_
 _atom_site_type_symbol
 _atom_site_label
 _atom_site_symmetry_multiplicity
 _atom_site_fract_x
 _atom_site_fract_y
 _atom_site_fract_z
 _atom_site_occupancy
  Mo  Mo0  1  -0.03753910  -0.00809539  0.08700670  1
  Mo  Mo1  1  1.80264000  1.83340000  0.07543300  1
  Mo  Mo2  1  1.84676000  7.26512000  1.80692000  1
  Mo  Mo3  1  7.29596000  1.84032000  1.81966000  1
  Mo  Mo4  1  3.61047000  7.26710000  3.65046000  1
  Mo  Mo5  1  5.44685000  1.81355000  3.67510000  1
  Mo  Mo6  1  5.42095000  0.01476690  1.83193000  1
  Mo  Mo7  1  3.60963000  1.83226000  1.79035000  1
  Mo  Mo8  1  7.30423000  3.62264000  -0.03235060  1
  Mo  Mo9  1  1.80189000  5.45221000  -0.04138990  1
  Mo  Mo10  1  1.88941000  3.67406000  1.82196000  1
  Mo  Mo11  1  -0.01785950  5.41585000  1.76427000  1
  Mo  Mo12  1  3.63879000  3.61212000  -0.04998310  1
  Mo  Mo13  1  5.46586000  5.47781000  3.61926000  1
  Mo  Mo14  1  5.46628000  3.62779000  1.84603000  1
  Mo  Mo15  1  3.67969000  5.48309000  1.80754000  1
