# generated using pymatgen
data_Mo
_symmetry_space_group_name_H-M   'P 1'
_cell_length_a   7.27963737
_cell_length_b   7.27963737
_cell_length_c   3.63981867
_cell_angle_alpha   90.00000000
_cell_angle_beta   90.00000000
_cell_angle_gamma   90.00000000
_symmetry_Int_Tables_number   1
_chemical_formula_structural   Mo
_chemical_formula_sum   Mo16
_cell_volume   192.88534851
_cell_formula_units_Z   16
loop_
 _symmetry_equiv_pos_site_id
 _symmetry_equiv_pos_as_xyz
  1  'x, y, z'
loop_
 _atom_site_type_symbol
 _atom_site_label
 _atom_site_symmetry_multiplicity
 _atom_site_fract_x
 _atom_site_fract_y
 _atom_site_fract_z
 _atom_site_occupancy
  Mo  Mo0  1  0.01396470  0.00343380  0.03453200  1
  Mo  Mo1  1  1.81428000  1.78888000  -0.01208860  1
  Mo  Mo2  1  1.83037000  7.27717000  1.86674000  1
  Mo  Mo3  1  7.34131000  1.83167000  1.77912000  1
  Mo  Mo4  1  3.66369000  7.21693000  3.67599000  1
  Mo  Mo5  1  5.46273000  1.80401000  3.64596000  1
  Mo  Mo6  1  5.49401000  0.04214510  1.84388000  1
  Mo  Mo7  1  3.58874000  1.83585000  1.76795000  1
  Mo  Mo8  1  7.26117000  3.63730000  -0.00885582  1
  Mo  Mo9  1  1.75910000  5.47656000  -0.01832230  1
  Mo  Mo10  1  1.79300000  3.67174000  1.80013000  1
  Mo  Mo11  1  0.00438554  5.53066000  1.86858000  1
  Mo  Mo12  1  3.64371000  3.61268000  -0.01725560  1
  Mo  Mo13  1  5.47924000  5.41533000  3.62512000  1
  Mo  Mo14  1  5.44051000  3.62903000  1.78975000  1
  Mo  Mo15  1  3.63380000  5.45062000  1.83094000  1
