# generated using pymatgen
data_Mo
_symmetry_space_group_name_H-M   'P 1'
_cell_length_a   7.27963737
_cell_length_b   7.27963737
_cell_length_c   3.63981867
_cell_angle_alpha   90.00000000
_cell_angle_beta   90.00000000
_cell_angle_gamma   90.00000000
_symmetry_Int_Tables_number   1
_chemical_formula_structural   Mo
_chemical_formula_sum   Mo16
_cell_volume   192.88534851
_cell_formula_units_Z   16
loop_
 _symmetry_equiv_pos_site_id
 _symmetry_equiv_pos_as_xyz
  1  'x, y, z'
loop_
 _atom_site_type_symbol
 _atom_site_label
 _atom_site_symmetry_multiplicity
 _atom_site_fract_x
 _atom_site_fract_y
 _atom_site_fract_z
 _atom_site_occupancy
  Mo  Mo0  1  0.01420850  0.00741494  0.02937100  1
  Mo  Mo1  1  1.82789000  1.82121000  -0.00562503  1
  Mo  Mo2  1  1.82298000  7.29169000  1.80042000  1
  Mo  Mo3  1  7.29826000  1.83984000  1.75575000  1
  Mo  Mo4  1  3.67220000  7.25293000  3.63059000  1
  Mo  Mo5  1  5.43492000  1.82417000  3.58777000  1
  Mo  Mo6  1  5.50885000  0.03223870  1.80737000  1
  Mo  Mo7  1  3.63872000  1.84242000  1.75786000  1
  Mo  Mo8  1  7.24018000  3.63530000  -0.01230940  1
  Mo  Mo9  1  1.83749000  5.43561000  -0.01253830  1
  Mo  Mo10  1  1.80419000  3.67599000  1.88664000  1
  Mo  Mo11  1  -0.01576530  5.45317000  1.82060000  1
  Mo  Mo12  1  3.63979000  3.59131000  -0.00114832  1
  Mo  Mo13  1  5.40771000  5.44787000  3.64090000  1
  Mo  Mo14  1  5.43474000  3.63367000  1.90052000  1
  Mo  Mo15  1  3.65766000  5.43916000  1.88600000  1
