# generated using pymatgen
data_Mo
_symmetry_space_group_name_H-M   'P 1'
_cell_length_a   7.27963737
_cell_length_b   7.27963737
_cell_length_c   3.63981867
_cell_angle_alpha   90.00000000
_cell_angle_beta   90.00000000
_cell_angle_gamma   90.00000000
_symmetry_Int_Tables_number   1
_chemical_formula_structural   Mo
_chemical_formula_sum   Mo16
_cell_volume   192.88534851
_cell_formula_units_Z   16
loop_
 _symmetry_equiv_pos_site_id
 _symmetry_equiv_pos_as_xyz
  1  'x, y, z'
loop_
 _atom_site_type_symbol
 _atom_site_label
 _atom_site_symmetry_multiplicity
 _atom_site_fract_x
 _atom_site_fract_y
 _atom_site_fract_z
 _atom_site_occupancy
  Mo  Mo0  1  0.00807691  -0.00204759  0.05985280  1
  Mo  Mo1  1  1.79291000  1.85499000  -0.02742410  1
  Mo  Mo2  1  1.80819000  7.25774000  1.81634000  1
  Mo  Mo3  1  7.25911000  1.78979000  1.79082000  1
  Mo  Mo4  1  3.61128000  7.27459000  3.64334000  1
  Mo  Mo5  1  5.43731000  1.89703000  3.61559000  1
  Mo  Mo6  1  5.42090000  0.02562490  1.80221000  1
  Mo  Mo7  1  3.61709000  1.81784000  1.78781000  1
  Mo  Mo8  1  7.29663000  3.66148000  0.00795974  1
  Mo  Mo9  1  1.87966000  5.38942000  0.01037820  1
  Mo  Mo10  1  1.87085000  3.63316000  1.84166000  1
  Mo  Mo11  1  -0.00645391  5.46820000  1.91259000  1
  Mo  Mo12  1  3.68668000  3.62844000  -0.07747580  1
  Mo  Mo13  1  5.48052000  5.43727000  3.61474000  1
  Mo  Mo14  1  5.41695000  3.63899000  1.82881000  1
  Mo  Mo15  1  3.64431000  5.45149000  1.84499000  1
