# generated using pymatgen
data_Mo
_symmetry_space_group_name_H-M   'P 1'
_cell_length_a   7.27963737
_cell_length_b   7.27963737
_cell_length_c   3.63981867
_cell_angle_alpha   90.00000000
_cell_angle_beta   90.00000000
_cell_angle_gamma   90.00000000
_symmetry_Int_Tables_number   1
_chemical_formula_structural   Mo
_chemical_formula_sum   Mo16
_cell_volume   192.88534851
_cell_formula_units_Z   16
loop_
 _symmetry_equiv_pos_site_id
 _symmetry_equiv_pos_as_xyz
  1  'x, y, z'
loop_
 _atom_site_type_symbol
 _atom_site_label
 _atom_site_symmetry_multiplicity
 _atom_site_fract_x
 _atom_site_fract_y
 _atom_site_fract_z
 _atom_site_occupancy
  Mo  Mo0  1  -0.03636750  -0.02699610  -0.05519200  1
  Mo  Mo1  1  1.83066000  1.79626000  0.00264132  1
  Mo  Mo2  1  1.83092000  7.27777000  1.77875000  1
  Mo  Mo3  1  7.27360000  1.79611000  1.84835000  1
  Mo  Mo4  1  3.63510000  7.29620000  3.60541000  1
  Mo  Mo5  1  5.42483000  1.86261000  3.61347000  1
  Mo  Mo6  1  5.42873000  -0.00654972  1.79132000  1
  Mo  Mo7  1  3.64779000  1.86633000  1.82438000  1
  Mo  Mo8  1  7.26086000  3.59767000  0.04674680  1
  Mo  Mo9  1  1.84635000  5.44647000  0.02339800  1
  Mo  Mo10  1  1.87921000  3.65434000  1.87934000  1
  Mo  Mo11  1  0.01983790  5.47295000  1.72120000  1
  Mo  Mo12  1  3.64465000  3.63137000  0.03168430  1
  Mo  Mo13  1  5.44049000  5.42564000  3.66821000  1
  Mo  Mo14  1  5.46503000  3.67922000  1.87924000  1
  Mo  Mo15  1  3.63230000  5.45461000  1.81323000  1
