# generated using pymatgen
data_Mo
_symmetry_space_group_name_H-M   'P 1'
_cell_length_a   7.27963737
_cell_length_b   7.27963737
_cell_length_c   3.63981867
_cell_angle_alpha   90.00000000
_cell_angle_beta   90.00000000
_cell_angle_gamma   90.00000000
_symmetry_Int_Tables_number   1
_chemical_formula_structural   Mo
_chemical_formula_sum   Mo16
_cell_volume   192.88534851
_cell_formula_units_Z   16
loop_
 _symmetry_equiv_pos_site_id
 _symmetry_equiv_pos_as_xyz
  1  'x, y, z'
loop_
 _atom_site_type_symbol
 _atom_site_label
 _atom_site_symmetry_multiplicity
 _atom_site_fract_x
 _atom_site_fract_y
 _atom_site_fract_z
 _atom_site_occupancy
  Mo  Mo0  1  0.03909200  0.03353030  0.04031890  1
  Mo  Mo1  1  1.76442000  1.77677000  -0.00037431  1
  Mo  Mo2  1  1.85511000  7.23854000  1.79672000  1
  Mo  Mo3  1  7.28242000  1.80948000  1.75971000  1
  Mo  Mo4  1  3.61916000  7.24319000  3.61895000  1
  Mo  Mo5  1  5.47324000  1.82428000  3.63155000  1
  Mo  Mo6  1  5.49285000  0.03503070  1.80019000  1
  Mo  Mo7  1  3.61214000  1.80088000  1.76407000  1
  Mo  Mo8  1  7.26527000  3.66067000  0.02766010  1
  Mo  Mo9  1  1.78466000  5.47344000  0.05587060  1
  Mo  Mo10  1  1.86441000  3.66268000  1.85456000  1
  Mo  Mo11  1  0.00117563  5.47847000  1.89318000  1
  Mo  Mo12  1  3.59751000  3.61206000  -0.09134930  1
  Mo  Mo13  1  5.48751000  5.49756000  3.63654000  1
  Mo  Mo14  1  5.40887000  3.63508000  1.85961000  1
  Mo  Mo15  1  3.67617000  5.44233000  1.82499000  1
