# generated using pymatgen
data_Mo
_symmetry_space_group_name_H-M   'P 1'
_cell_length_a   7.27808089
_cell_length_b   7.27808089
_cell_length_c   3.63904047
_cell_angle_alpha   90.00000000
_cell_angle_beta   90.00000000
_cell_angle_gamma   90.00000000
_symmetry_Int_Tables_number   1
_chemical_formula_structural   Mo
_chemical_formula_sum   Mo16
_cell_volume   192.76165285
_cell_formula_units_Z   16
loop_
 _symmetry_equiv_pos_site_id
 _symmetry_equiv_pos_as_xyz
  1  'x, y, z'
loop_
 _atom_site_type_symbol
 _atom_site_label
 _atom_site_symmetry_multiplicity
 _atom_site_fract_x
 _atom_site_fract_y
 _atom_site_fract_z
 _atom_site_occupancy
  Mo  Mo0  1  0.00559353  7.26629000  0.00723024  1
  Mo  Mo1  1  1.81933000  1.82135000  -0.00759257  1
  Mo  Mo2  1  1.81062000  7.28292000  1.81784000  1
  Mo  Mo3  1  7.27655000  1.80748000  1.82205000  1
  Mo  Mo4  1  3.63972000  7.26817000  3.65127000  1
  Mo  Mo5  1  5.44715000  1.82833000  -0.01333380  1
  Mo  Mo6  1  5.44834000  0.01166930  1.80862000  1
  Mo  Mo7  1  3.64355000  1.82172000  1.81310000  1
  Mo  Mo8  1  7.26651000  3.64805000  3.62990000  1
  Mo  Mo9  1  1.82903000  5.45716000  3.64389000  1
  Mo  Mo10  1  1.81893000  3.64041000  1.81585000  1
  Mo  Mo11  1  7.28976000  5.44760000  1.81480000  1
  Mo  Mo12  1  3.63164000  3.63944000  0.00138236  1
  Mo  Mo13  1  5.46517000  5.46697000  3.64778000  1
  Mo  Mo14  1  5.46941000  3.64709000  1.83403000  1
  Mo  Mo15  1  3.64077000  5.44744000  1.82519000  1
