# generated using pymatgen
data_Mo
_symmetry_space_group_name_H-M   'P 1'
_cell_length_a   7.27963737
_cell_length_b   7.27963737
_cell_length_c   3.63981867
_cell_angle_alpha   90.00000000
_cell_angle_beta   90.00000000
_cell_angle_gamma   90.00000000
_symmetry_Int_Tables_number   1
_chemical_formula_structural   Mo
_chemical_formula_sum   Mo16
_cell_volume   192.88534851
_cell_formula_units_Z   16
loop_
 _symmetry_equiv_pos_site_id
 _symmetry_equiv_pos_as_xyz
  1  'x, y, z'
loop_
 _atom_site_type_symbol
 _atom_site_label
 _atom_site_symmetry_multiplicity
 _atom_site_fract_x
 _atom_site_fract_y
 _atom_site_fract_z
 _atom_site_occupancy
  Mo  Mo0  1  -0.02912730  0.03148910  -0.05354230  1
  Mo  Mo1  1  1.78413000  1.82426000  0.02483630  1
  Mo  Mo2  1  1.79434000  7.23949000  1.78418000  1
  Mo  Mo3  1  7.24747000  1.76978000  1.79359000  1
  Mo  Mo4  1  3.63539000  7.34749000  3.62995000  1
  Mo  Mo5  1  5.49278000  1.84474000  3.66175000  1
  Mo  Mo6  1  5.45740000  -0.06444470  1.76632000  1
  Mo  Mo7  1  3.65739000  1.82250000  1.77838000  1
  Mo  Mo8  1  7.31568000  3.61060000  0.00310049  1
  Mo  Mo9  1  1.82698000  5.47849000  -0.01365710  1
  Mo  Mo10  1  1.81389000  3.60055000  1.83050000  1
  Mo  Mo11  1  0.03304510  5.45552000  1.84213000  1
  Mo  Mo12  1  3.62833000  3.62056000  0.05506620  1
  Mo  Mo13  1  5.47355000  5.48867000  3.64550000  1
  Mo  Mo14  1  5.49178000  3.66590000  1.82659000  1
  Mo  Mo15  1  3.60097000  5.48840000  1.89748000  1
