# generated using pymatgen
data_Mo
_symmetry_space_group_name_H-M   'P 1'
_cell_length_a   7.27963737
_cell_length_b   7.27963737
_cell_length_c   3.63981867
_cell_angle_alpha   90.00000000
_cell_angle_beta   90.00000000
_cell_angle_gamma   90.00000000
_symmetry_Int_Tables_number   1
_chemical_formula_structural   Mo
_chemical_formula_sum   Mo16
_cell_volume   192.88534851
_cell_formula_units_Z   16
loop_
 _symmetry_equiv_pos_site_id
 _symmetry_equiv_pos_as_xyz
  1  'x, y, z'
loop_
 _atom_site_type_symbol
 _atom_site_label
 _atom_site_symmetry_multiplicity
 _atom_site_fract_x
 _atom_site_fract_y
 _atom_site_fract_z
 _atom_site_occupancy
  Mo  Mo0  1  -0.02664070  0.04273860  -0.01428410  1
  Mo  Mo1  1  1.78201000  1.82323000  0.05525700  1
  Mo  Mo2  1  1.80508000  7.26474000  1.80552000  1
  Mo  Mo3  1  7.26009000  1.81565000  1.84728000  1
  Mo  Mo4  1  3.63909000  7.33400000  3.57579000  1
  Mo  Mo5  1  5.46698000  1.86394000  3.68608000  1
  Mo  Mo6  1  5.45447000  -0.05828610  1.78275000  1
  Mo  Mo7  1  3.64218000  1.80821000  1.80785000  1
  Mo  Mo8  1  7.29841000  3.63849000  0.05009790  1
  Mo  Mo9  1  1.82932000  5.44562000  -0.04009870  1
  Mo  Mo10  1  1.79172000  3.59682000  1.86280000  1
  Mo  Mo11  1  0.04007080  5.45439000  1.88560000  1
  Mo  Mo12  1  3.62913000  3.58095000  -0.00176715  1
  Mo  Mo13  1  5.48068000  5.45197000  3.57411000  1
  Mo  Mo14  1  5.51426000  3.68962000  1.82933000  1
  Mo  Mo15  1  3.61715000  5.47191000  1.76586000  1
