# generated using pymatgen
data_Mo
_symmetry_space_group_name_H-M   'P 1'
_cell_length_a   7.27963737
_cell_length_b   7.27963737
_cell_length_c   3.63981867
_cell_angle_alpha   90.00000000
_cell_angle_beta   90.00000000
_cell_angle_gamma   90.00000000
_symmetry_Int_Tables_number   1
_chemical_formula_structural   Mo
_chemical_formula_sum   Mo16
_cell_volume   192.88534851
_cell_formula_units_Z   16
loop_
 _symmetry_equiv_pos_site_id
 _symmetry_equiv_pos_as_xyz
  1  'x, y, z'
loop_
 _atom_site_type_symbol
 _atom_site_label
 _atom_site_symmetry_multiplicity
 _atom_site_fract_x
 _atom_site_fract_y
 _atom_site_fract_z
 _atom_site_occupancy
  Mo  Mo0  1  0.00859341  -0.02396900  -0.06565650  1
  Mo  Mo1  1  1.86073000  1.82384000  -0.00211071  1
  Mo  Mo2  1  1.84398000  7.30152000  1.76179000  1
  Mo  Mo3  1  7.25977000  1.81699000  1.78418000  1
  Mo  Mo4  1  3.63864000  7.27690000  3.64256000  1
  Mo  Mo5  1  5.43841000  1.84266000  3.65451000  1
  Mo  Mo6  1  5.42829000  -0.00196516  1.77812000  1
  Mo  Mo7  1  3.64717000  1.86621000  1.80548000  1
  Mo  Mo8  1  7.29952000  3.65894000  0.00228473  1
  Mo  Mo9  1  1.83450000  5.49256000  -0.03259630  1
  Mo  Mo10  1  1.81636000  3.60474000  1.84088000  1
  Mo  Mo11  1  -0.02177010  5.43369000  1.84032000  1
  Mo  Mo12  1  3.65920000  3.65981000  0.08563300  1
  Mo  Mo13  1  5.43883000  5.42715000  3.63348000  1
  Mo  Mo14  1  5.42759000  3.60302000  1.83644000  1
  Mo  Mo15  1  3.64417000  5.44192000  1.90688000  1
