# generated using pymatgen
data_Mo
_symmetry_space_group_name_H-M   'P 1'
_cell_length_a   7.27963737
_cell_length_b   7.27963737
_cell_length_c   3.63981867
_cell_angle_alpha   90.00000000
_cell_angle_beta   90.00000000
_cell_angle_gamma   90.00000000
_symmetry_Int_Tables_number   1
_chemical_formula_structural   Mo
_chemical_formula_sum   Mo16
_cell_volume   192.88534851
_cell_formula_units_Z   16
loop_
 _symmetry_equiv_pos_site_id
 _symmetry_equiv_pos_as_xyz
  1  'x, y, z'
loop_
 _atom_site_type_symbol
 _atom_site_label
 _atom_site_symmetry_multiplicity
 _atom_site_fract_x
 _atom_site_fract_y
 _atom_site_fract_z
 _atom_site_occupancy
  Mo  Mo0  1  0.03412960  -0.01574030  -0.01726150  1
  Mo  Mo1  1  1.82133000  1.88647000  0.00030057  1
  Mo  Mo2  1  1.83948000  7.30387000  1.82817000  1
  Mo  Mo3  1  7.26801000  1.81075000  1.83278000  1
  Mo  Mo4  1  3.64154000  7.28452000  3.65478000  1
  Mo  Mo5  1  5.52462000  1.84465000  3.65802000  1
  Mo  Mo6  1  5.49919000  -0.00381850  1.85260000  1
  Mo  Mo7  1  3.64151000  1.81515000  1.90227000  1
  Mo  Mo8  1  7.25887000  3.63280000  -0.01628550  1
  Mo  Mo9  1  1.76394000  5.42388000  -0.03470170  1
  Mo  Mo10  1  1.79113000  3.65709000  1.81445000  1
  Mo  Mo11  1  -0.00677393  5.48753000  1.75638000  1
  Mo  Mo12  1  3.62741000  3.62830000  0.05264810  1
  Mo  Mo13  1  5.43359000  5.38079000  3.60667000  1
  Mo  Mo14  1  5.45379000  3.64038000  1.82722000  1
  Mo  Mo15  1  3.63222000  5.44738000  1.75414000  1
