# generated using pymatgen
data_Mo
_symmetry_space_group_name_H-M   'P 1'
_cell_length_a   7.27963737
_cell_length_b   7.27963737
_cell_length_c   3.63981867
_cell_angle_alpha   90.00000000
_cell_angle_beta   90.00000000
_cell_angle_gamma   90.00000000
_symmetry_Int_Tables_number   1
_chemical_formula_structural   Mo
_chemical_formula_sum   Mo16
_cell_volume   192.88534851
_cell_formula_units_Z   16
loop_
 _symmetry_equiv_pos_site_id
 _symmetry_equiv_pos_as_xyz
  1  'x, y, z'
loop_
 _atom_site_type_symbol
 _atom_site_label
 _atom_site_symmetry_multiplicity
 _atom_site_fract_x
 _atom_site_fract_y
 _atom_site_fract_z
 _atom_site_occupancy
  Mo  Mo0  1  -0.01362380  -0.03740650  -0.00118784  1
  Mo  Mo1  1  1.78983000  1.75442000  -0.01903620  1
  Mo  Mo2  1  1.82849000  7.32268000  1.85306000  1
  Mo  Mo3  1  7.29851000  1.79406000  1.72317000  1
  Mo  Mo4  1  3.62459000  7.27234000  3.68654000  1
  Mo  Mo5  1  5.45544000  1.79121000  3.63493000  1
  Mo  Mo6  1  5.42537000  0.02790070  1.86588000  1
  Mo  Mo7  1  3.67249000  1.87801000  1.80033000  1
  Mo  Mo8  1  7.25621000  3.64031000  -0.05353720  1
  Mo  Mo9  1  1.84428000  5.46892000  0.00660711  1
  Mo  Mo10  1  1.85794000  3.62533000  1.82144000  1
  Mo  Mo11  1  0.00917134  5.46550000  1.85101000  1
  Mo  Mo12  1  3.64298000  3.65211000  -0.01599530  1
  Mo  Mo13  1  5.46280000  5.45923000  3.64647000  1
  Mo  Mo14  1  5.45515000  3.64035000  1.80720000  1
  Mo  Mo15  1  3.61437000  5.46903000  1.86529000  1
