# generated using pymatgen
data_Mo
_symmetry_space_group_name_H-M   'P 1'
_cell_length_a   7.27963737
_cell_length_b   7.27963737
_cell_length_c   3.63981867
_cell_angle_alpha   90.00000000
_cell_angle_beta   90.00000000
_cell_angle_gamma   90.00000000
_symmetry_Int_Tables_number   1
_chemical_formula_structural   Mo
_chemical_formula_sum   Mo16
_cell_volume   192.88534851
_cell_formula_units_Z   16
loop_
 _symmetry_equiv_pos_site_id
 _symmetry_equiv_pos_as_xyz
  1  'x, y, z'
loop_
 _atom_site_type_symbol
 _atom_site_label
 _atom_site_symmetry_multiplicity
 _atom_site_fract_x
 _atom_site_fract_y
 _atom_site_fract_z
 _atom_site_occupancy
  Mo  Mo0  1  -0.00833835  -0.01127720  0.01402180  1
  Mo  Mo1  1  1.83256000  1.81538000  -0.00486497  1
  Mo  Mo2  1  1.77637000  7.29389000  1.86662000  1
  Mo  Mo3  1  7.27831000  1.83548000  1.85908000  1
  Mo  Mo4  1  3.59975000  7.27324000  3.69337000  1
  Mo  Mo5  1  5.47820000  1.81997000  3.68950000  1
  Mo  Mo6  1  5.47134000  -0.06896570  1.86668000  1
  Mo  Mo7  1  3.65383000  1.86586000  1.80519000  1
  Mo  Mo8  1  7.27982000  3.64497000  -0.07600620  1
  Mo  Mo9  1  1.76145000  5.47987000  -0.02309580  1
  Mo  Mo10  1  1.83761000  3.63394000  1.76679000  1
  Mo  Mo11  1  0.02475310  5.39910000  1.75492000  1
  Mo  Mo12  1  3.66803000  3.67187000  0.01246210  1
  Mo  Mo13  1  5.42216000  5.45689000  3.63749000  1
  Mo  Mo14  1  5.51664000  3.66391000  1.79349000  1
  Mo  Mo15  1  3.63151000  5.44987000  1.81654000  1
