# generated using pymatgen
data_Mo
_symmetry_space_group_name_H-M   'P 1'
_cell_length_a   7.27963737
_cell_length_b   7.27963737
_cell_length_c   3.63981867
_cell_angle_alpha   90.00000000
_cell_angle_beta   90.00000000
_cell_angle_gamma   90.00000000
_symmetry_Int_Tables_number   1
_chemical_formula_structural   Mo
_chemical_formula_sum   Mo16
_cell_volume   192.88534851
_cell_formula_units_Z   16
loop_
 _symmetry_equiv_pos_site_id
 _symmetry_equiv_pos_as_xyz
  1  'x, y, z'
loop_
 _atom_site_type_symbol
 _atom_site_label
 _atom_site_symmetry_multiplicity
 _atom_site_fract_x
 _atom_site_fract_y
 _atom_site_fract_z
 _atom_site_occupancy
  Mo  Mo0  1  0.02211790  0.03306290  -0.07052520  1
  Mo  Mo1  1  1.80674000  1.83073000  0.01423240  1
  Mo  Mo2  1  1.79720000  7.23316000  1.78839000  1
  Mo  Mo3  1  7.30107000  1.77422000  1.77306000  1
  Mo  Mo4  1  3.61324000  7.33535000  3.62223000  1
  Mo  Mo5  1  5.45941000  1.82728000  3.71109000  1
  Mo  Mo6  1  5.43775000  -0.04669790  1.79550000  1
  Mo  Mo7  1  3.64320000  1.79807000  1.84358000  1
  Mo  Mo8  1  7.29610000  3.58840000  -0.01019920  1
  Mo  Mo9  1  1.76789000  5.52078000  -0.01232380  1
  Mo  Mo10  1  1.84324000  3.63564000  1.83432000  1
  Mo  Mo11  1  -0.00613991  5.44341000  1.80244000  1
  Mo  Mo12  1  3.63498000  3.64819000  0.03951660  1
  Mo  Mo13  1  5.46595000  5.48267000  3.64444000  1
  Mo  Mo14  1  5.49455000  3.64584000  1.85439000  1
  Mo  Mo15  1  3.64669000  5.47389000  1.84205000  1
