# generated using pymatgen
data_Mo
_symmetry_space_group_name_H-M   'P 1'
_cell_length_a   7.27963737
_cell_length_b   7.27963737
_cell_length_c   3.63981867
_cell_angle_alpha   90.00000000
_cell_angle_beta   90.00000000
_cell_angle_gamma   90.00000000
_symmetry_Int_Tables_number   1
_chemical_formula_structural   Mo
_chemical_formula_sum   Mo16
_cell_volume   192.88534851
_cell_formula_units_Z   16
loop_
 _symmetry_equiv_pos_site_id
 _symmetry_equiv_pos_as_xyz
  1  'x, y, z'
loop_
 _atom_site_type_symbol
 _atom_site_label
 _atom_site_symmetry_multiplicity
 _atom_site_fract_x
 _atom_site_fract_y
 _atom_site_fract_z
 _atom_site_occupancy
  Mo  Mo0  1  0.00026510  -0.06826600  -0.01728770  1
  Mo  Mo1  1  1.79573000  1.77196000  -0.07560370  1
  Mo  Mo2  1  1.79529000  7.36336000  1.83319000  1
  Mo  Mo3  1  7.26291000  1.78939000  1.74322000  1
  Mo  Mo4  1  3.64351000  7.25852000  3.65456000  1
  Mo  Mo5  1  5.48663000  1.78800000  3.58419000  1
  Mo  Mo6  1  5.48472000  0.02615420  1.84026000  1
  Mo  Mo7  1  3.67622000  1.84250000  1.87419000  1
  Mo  Mo8  1  7.28146000  3.63807000  -0.03941840  1
  Mo  Mo9  1  1.81384000  5.48097000  0.05020530  1
  Mo  Mo10  1  1.81028000  3.62527000  1.81896000  1
  Mo  Mo11  1  0.03822750  5.49419000  1.79191000  1
  Mo  Mo12  1  3.62983000  3.65490000  0.03866200  1
  Mo  Mo13  1  5.43697000  5.43944000  3.67919000  1
  Mo  Mo14  1  5.46843000  3.65097000  1.86896000  1
  Mo  Mo15  1  3.59967000  5.46856000  1.82701000  1
