# generated using pymatgen
data_Mo
_symmetry_space_group_name_H-M   'P 1'
_cell_length_a   7.27963737
_cell_length_b   7.27963737
_cell_length_c   3.63981867
_cell_angle_alpha   90.00000000
_cell_angle_beta   90.00000000
_cell_angle_gamma   90.00000000
_symmetry_Int_Tables_number   1
_chemical_formula_structural   Mo
_chemical_formula_sum   Mo16
_cell_volume   192.88534851
_cell_formula_units_Z   16
loop_
 _symmetry_equiv_pos_site_id
 _symmetry_equiv_pos_as_xyz
  1  'x, y, z'
loop_
 _atom_site_type_symbol
 _atom_site_label
 _atom_site_symmetry_multiplicity
 _atom_site_fract_x
 _atom_site_fract_y
 _atom_site_fract_z
 _atom_site_occupancy
  Mo  Mo0  1  -0.00735504  -0.04951020  0.00090885  1
  Mo  Mo1  1  1.82292000  1.78815000  0.02156510  1
  Mo  Mo2  1  1.89082000  7.35215000  1.86517000  1
  Mo  Mo3  1  7.30225000  1.82457000  1.80011000  1
  Mo  Mo4  1  3.66484000  7.24312000  3.68798000  1
  Mo  Mo5  1  5.46415000  1.75357000  3.68154000  1
  Mo  Mo6  1  5.42826000  -0.00722258  1.86541000  1
  Mo  Mo7  1  3.69171000  1.82509000  1.80576000  1
  Mo  Mo8  1  7.25287000  3.66652000  -0.05302440  1
  Mo  Mo9  1  1.83051000  5.47843000  -0.05803920  1
  Mo  Mo10  1  1.81815000  3.63268000  1.80240000  1
  Mo  Mo11  1  -0.02211960  5.49079000  1.76513000  1
  Mo  Mo12  1  3.57651000  3.61426000  0.00105852  1
  Mo  Mo13  1  5.44662000  5.46036000  3.60504000  1
  Mo  Mo14  1  5.45109000  3.63839000  1.83533000  1
  Mo  Mo15  1  3.61279000  5.51264000  1.84583000  1
