# generated using pymatgen
data_Mo
_symmetry_space_group_name_H-M   'P 1'
_cell_length_a   7.27963737
_cell_length_b   7.27963737
_cell_length_c   3.63981867
_cell_angle_alpha   90.00000000
_cell_angle_beta   90.00000000
_cell_angle_gamma   90.00000000
_symmetry_Int_Tables_number   1
_chemical_formula_structural   Mo
_chemical_formula_sum   Mo16
_cell_volume   192.88534851
_cell_formula_units_Z   16
loop_
 _symmetry_equiv_pos_site_id
 _symmetry_equiv_pos_as_xyz
  1  'x, y, z'
loop_
 _atom_site_type_symbol
 _atom_site_label
 _atom_site_symmetry_multiplicity
 _atom_site_fract_x
 _atom_site_fract_y
 _atom_site_fract_z
 _atom_site_occupancy
  Mo  Mo0  1  -0.01351400  -0.01952410  -0.00064926  1
  Mo  Mo1  1  1.84600000  1.83981000  0.02913550  1
  Mo  Mo2  1  1.83725000  7.28813000  1.79920000  1
  Mo  Mo3  1  7.30959000  1.83238000  1.74485000  1
  Mo  Mo4  1  3.62985000  7.27904000  3.70609000  1
  Mo  Mo5  1  5.44722000  1.83023000  3.70009000  1
  Mo  Mo6  1  5.45290000  0.01068740  1.82378000  1
  Mo  Mo7  1  3.64624000  1.87243000  1.87191000  1
  Mo  Mo8  1  7.26384000  3.60064000  -0.02670670  1
  Mo  Mo9  1  1.80560000  5.46024000  -0.03014930  1
  Mo  Mo10  1  1.86731000  3.68900000  1.85138000  1
  Mo  Mo11  1  -0.03606440  5.40475000  1.75959000  1
  Mo  Mo12  1  3.65761000  3.61671000  -0.01743270  1
  Mo  Mo13  1  5.40923000  5.43037000  3.57446000  1
  Mo  Mo14  1  5.44903000  3.61264000  1.87508000  1
  Mo  Mo15  1  3.65190000  5.47647000  1.81156000  1
