# generated using pymatgen
data_Mo
_symmetry_space_group_name_H-M   'P 1'
_cell_length_a   7.27808089
_cell_length_b   7.27808089
_cell_length_c   3.63904047
_cell_angle_alpha   90.00000000
_cell_angle_beta   90.00000000
_cell_angle_gamma   90.00000000
_symmetry_Int_Tables_number   1
_chemical_formula_structural   Mo
_chemical_formula_sum   Mo16
_cell_volume   192.76165285
_cell_formula_units_Z   16
loop_
 _symmetry_equiv_pos_site_id
 _symmetry_equiv_pos_as_xyz
  1  'x, y, z'
loop_
 _atom_site_type_symbol
 _atom_site_label
 _atom_site_symmetry_multiplicity
 _atom_site_fract_x
 _atom_site_fract_y
 _atom_site_fract_z
 _atom_site_occupancy
  Mo  Mo0  1  0.00529486  7.26704000  -0.00871348  1
  Mo  Mo1  1  1.82297000  1.81799000  0.00389175  1
  Mo  Mo2  1  1.82145000  7.28744000  1.81863000  1
  Mo  Mo3  1  7.28932000  1.82928000  1.80904000  1
  Mo  Mo4  1  3.64527000  7.27426000  3.63510000  1
  Mo  Mo5  1  5.45376000  1.80470000  0.00255690  1
  Mo  Mo6  1  5.46268000  -0.00417270  1.83194000  1
  Mo  Mo7  1  3.63057000  1.82238000  1.82204000  1
  Mo  Mo8  1  7.28624000  3.64945000  3.64542000  1
  Mo  Mo9  1  1.81454000  5.45913000  3.63720000  1
  Mo  Mo10  1  1.82108000  3.64105000  1.82535000  1
  Mo  Mo11  1  7.27360000  5.46148000  1.82319000  1
  Mo  Mo12  1  3.63560000  3.64573000  0.00397878  1
  Mo  Mo13  1  5.44755000  5.44733000  3.63294000  1
  Mo  Mo14  1  5.45727000  3.63741000  1.81061000  1
  Mo  Mo15  1  3.63488000  5.46158000  1.81884000  1
