# generated using pymatgen
data_Mo
_symmetry_space_group_name_H-M   'P 1'
_cell_length_a   7.27963737
_cell_length_b   7.27963737
_cell_length_c   3.63981867
_cell_angle_alpha   90.00000000
_cell_angle_beta   90.00000000
_cell_angle_gamma   90.00000000
_symmetry_Int_Tables_number   1
_chemical_formula_structural   Mo
_chemical_formula_sum   Mo16
_cell_volume   192.88534851
_cell_formula_units_Z   16
loop_
 _symmetry_equiv_pos_site_id
 _symmetry_equiv_pos_as_xyz
  1  'x, y, z'
loop_
 _atom_site_type_symbol
 _atom_site_label
 _atom_site_symmetry_multiplicity
 _atom_site_fract_x
 _atom_site_fract_y
 _atom_site_fract_z
 _atom_site_occupancy
  Mo  Mo0  1  0.01384460  -0.02335400  0.08455860  1
  Mo  Mo1  1  1.81680000  1.80184000  -0.00823537  1
  Mo  Mo2  1  1.79785000  7.29295000  1.85503000  1
  Mo  Mo3  1  7.26606000  1.82303000  1.90979000  1
  Mo  Mo4  1  3.60817000  7.25740000  3.67937000  1
  Mo  Mo5  1  5.45663000  1.85608000  3.63901000  1
  Mo  Mo6  1  5.47544000  -0.01358870  1.84973000  1
  Mo  Mo7  1  3.63489000  1.85685000  1.79058000  1
  Mo  Mo8  1  7.29505000  3.61897000  -0.00568106  1
  Mo  Mo9  1  1.81451000  5.41059000  -0.01961710  1
  Mo  Mo10  1  1.78424000  3.62018000  1.76231000  1
  Mo  Mo11  1  0.01858560  5.47816000  1.78200000  1
  Mo  Mo12  1  3.65701000  3.64004000  -0.04411820  1
  Mo  Mo13  1  5.48075000  5.43961000  3.61436000  1
  Mo  Mo14  1  5.46052000  3.67532000  1.79321000  1
  Mo  Mo15  1  3.64366000  5.48992000  1.78988000  1
