# generated using pymatgen
data_Mo
_symmetry_space_group_name_H-M   'P 1'
_cell_length_a   7.27963737
_cell_length_b   7.27963737
_cell_length_c   3.63981867
_cell_angle_alpha   90.00000000
_cell_angle_beta   90.00000000
_cell_angle_gamma   90.00000000
_symmetry_Int_Tables_number   1
_chemical_formula_structural   Mo
_chemical_formula_sum   Mo16
_cell_volume   192.88534851
_cell_formula_units_Z   16
loop_
 _symmetry_equiv_pos_site_id
 _symmetry_equiv_pos_as_xyz
  1  'x, y, z'
loop_
 _atom_site_type_symbol
 _atom_site_label
 _atom_site_symmetry_multiplicity
 _atom_site_fract_x
 _atom_site_fract_y
 _atom_site_fract_z
 _atom_site_occupancy
  Mo  Mo0  1  -0.01163690  -0.03537940  0.07916560  1
  Mo  Mo1  1  1.80525000  1.79751000  0.05666470  1
  Mo  Mo2  1  1.73890000  7.28749000  1.81457000  1
  Mo  Mo3  1  7.29816000  1.76143000  1.81226000  1
  Mo  Mo4  1  3.60597000  7.27084000  3.68935000  1
  Mo  Mo5  1  5.46323000  1.81097000  3.66802000  1
  Mo  Mo6  1  5.50018000  0.03420740  1.82559000  1
  Mo  Mo7  1  3.61359000  1.81969000  1.81109000  1
  Mo  Mo8  1  7.27237000  3.62451000  -0.02682370  1
  Mo  Mo9  1  1.83880000  5.45059000  -0.06416380  1
  Mo  Mo10  1  1.80524000  3.67617000  1.84147000  1
  Mo  Mo11  1  0.00544191  5.48435000  1.75506000  1
  Mo  Mo12  1  3.69989000  3.62752000  -0.02021580  1
  Mo  Mo13  1  5.45179000  5.46423000  3.58229000  1
  Mo  Mo14  1  5.51565000  3.64164000  1.83761000  1
  Mo  Mo15  1  3.62118000  5.50821000  1.81024000  1
