# generated using pymatgen
data_Mo
_symmetry_space_group_name_H-M   'P 1'
_cell_length_a   7.27963737
_cell_length_b   7.27963737
_cell_length_c   3.63981867
_cell_angle_alpha   90.00000000
_cell_angle_beta   90.00000000
_cell_angle_gamma   90.00000000
_symmetry_Int_Tables_number   1
_chemical_formula_structural   Mo
_chemical_formula_sum   Mo16
_cell_volume   192.88534851
_cell_formula_units_Z   16
loop_
 _symmetry_equiv_pos_site_id
 _symmetry_equiv_pos_as_xyz
  1  'x, y, z'
loop_
 _atom_site_type_symbol
 _atom_site_label
 _atom_site_symmetry_multiplicity
 _atom_site_fract_x
 _atom_site_fract_y
 _atom_site_fract_z
 _atom_site_occupancy
  Mo  Mo0  1  0.02486430  0.00727010  -0.00727684  1
  Mo  Mo1  1  1.80574000  1.81458000  0.04647650  1
  Mo  Mo2  1  1.78605000  7.27098000  1.81807000  1
  Mo  Mo3  1  7.30793000  1.82466000  1.82095000  1
  Mo  Mo4  1  3.63462000  7.29633000  3.68091000  1
  Mo  Mo5  1  5.48779000  1.81645000  3.69834000  1
  Mo  Mo6  1  5.50139000  -0.03070800  1.81684000  1
  Mo  Mo7  1  3.68120000  1.89330000  1.86497000  1
  Mo  Mo8  1  7.24590000  3.64686000  -0.08137250  1
  Mo  Mo9  1  1.82714000  5.49521000  -0.04440210  1
  Mo  Mo10  1  1.78642000  3.64857000  1.78941000  1
  Mo  Mo11  1  -0.02989990  5.41656000  1.76843000  1
  Mo  Mo12  1  3.63659000  3.64233000  -0.00946563  1
  Mo  Mo13  1  5.46571000  5.46790000  3.61788000  1
  Mo  Mo14  1  5.46782000  3.60868000  1.81064000  1
  Mo  Mo15  1  3.59473000  5.40503000  1.88178000  1
