# generated using pymatgen
data_Mo
_symmetry_space_group_name_H-M   'P 1'
_cell_length_a   7.27963737
_cell_length_b   7.27963737
_cell_length_c   3.63981867
_cell_angle_alpha   90.00000000
_cell_angle_beta   90.00000000
_cell_angle_gamma   90.00000000
_symmetry_Int_Tables_number   1
_chemical_formula_structural   Mo
_chemical_formula_sum   Mo16
_cell_volume   192.88534851
_cell_formula_units_Z   16
loop_
 _symmetry_equiv_pos_site_id
 _symmetry_equiv_pos_as_xyz
  1  'x, y, z'
loop_
 _atom_site_type_symbol
 _atom_site_label
 _atom_site_symmetry_multiplicity
 _atom_site_fract_x
 _atom_site_fract_y
 _atom_site_fract_z
 _atom_site_occupancy
  Mo  Mo0  1  -0.04234160  -0.04861230  -0.02287950  1
  Mo  Mo1  1  1.80900000  1.76060000  0.01955990  1
  Mo  Mo2  1  1.81181000  7.28820000  1.81473000  1
  Mo  Mo3  1  7.30140000  1.80188000  1.81757000  1
  Mo  Mo4  1  3.63553000  7.24729000  3.63280000  1
  Mo  Mo5  1  5.46639000  1.80014000  3.66967000  1
  Mo  Mo6  1  5.44895000  0.07595610  1.78677000  1
  Mo  Mo7  1  3.57475000  1.84519000  1.81630000  1
  Mo  Mo8  1  7.29638000  3.63382000  0.03591180  1
  Mo  Mo9  1  1.78202000  5.45667000  -0.06126520  1
  Mo  Mo10  1  1.80493000  3.63850000  1.84572000  1
  Mo  Mo11  1  -0.00567371  5.45960000  1.84402000  1
  Mo  Mo12  1  3.68615000  3.68246000  0.04479690  1
  Mo  Mo13  1  5.51039000  5.44069000  3.57561000  1
  Mo  Mo14  1  5.49881000  3.64269000  1.84444000  1
  Mo  Mo15  1  3.64552000  5.49893000  1.80842000  1
