# generated using pymatgen
data_Mo
_symmetry_space_group_name_H-M   'P 1'
_cell_length_a   7.27963737
_cell_length_b   7.27963737
_cell_length_c   3.63981867
_cell_angle_alpha   90.00000000
_cell_angle_beta   90.00000000
_cell_angle_gamma   90.00000000
_symmetry_Int_Tables_number   1
_chemical_formula_structural   Mo
_chemical_formula_sum   Mo16
_cell_volume   192.88534851
_cell_formula_units_Z   16
loop_
 _symmetry_equiv_pos_site_id
 _symmetry_equiv_pos_as_xyz
  1  'x, y, z'
loop_
 _atom_site_type_symbol
 _atom_site_label
 _atom_site_symmetry_multiplicity
 _atom_site_fract_x
 _atom_site_fract_y
 _atom_site_fract_z
 _atom_site_occupancy
  Mo  Mo0  1  0.00881410  -0.04351890  0.01163540  1
  Mo  Mo1  1  1.83456000  1.86139000  0.02130840  1
  Mo  Mo2  1  1.80620000  7.30624000  1.78088000  1
  Mo  Mo3  1  7.32765000  1.78008000  1.75226000  1
  Mo  Mo4  1  3.65624000  7.26278000  3.71545000  1
  Mo  Mo5  1  5.49255000  1.80508000  3.68842000  1
  Mo  Mo6  1  5.49760000  -0.00548636  1.79727000  1
  Mo  Mo7  1  3.62506000  1.79337000  1.86849000  1
  Mo  Mo8  1  7.25913000  3.64041000  -0.01234130  1
  Mo  Mo9  1  1.81628000  5.44377000  -0.04846180  1
  Mo  Mo10  1  1.78029000  3.67786000  1.84140000  1
  Mo  Mo11  1  -0.03739190  5.48282000  1.76513000  1
  Mo  Mo12  1  3.64372000  3.62299000  0.01645410  1
  Mo  Mo13  1  5.44465000  5.44797000  3.58567000  1
  Mo  Mo14  1  5.47140000  3.62321000  1.86760000  1
  Mo  Mo15  1  3.59723000  5.52503000  1.82102000  1
