# generated using pymatgen
data_Mo
_symmetry_space_group_name_H-M   'P 1'
_cell_length_a   7.27963737
_cell_length_b   7.27963737
_cell_length_c   3.63981867
_cell_angle_alpha   90.00000000
_cell_angle_beta   90.00000000
_cell_angle_gamma   90.00000000
_symmetry_Int_Tables_number   1
_chemical_formula_structural   Mo
_chemical_formula_sum   Mo16
_cell_volume   192.88534851
_cell_formula_units_Z   16
loop_
 _symmetry_equiv_pos_site_id
 _symmetry_equiv_pos_as_xyz
  1  'x, y, z'
loop_
 _atom_site_type_symbol
 _atom_site_label
 _atom_site_symmetry_multiplicity
 _atom_site_fract_x
 _atom_site_fract_y
 _atom_site_fract_z
 _atom_site_occupancy
  Mo  Mo0  1  0.01048270  0.00768789  -0.00308124  1
  Mo  Mo1  1  1.81274000  1.79484000  -0.03992220  1
  Mo  Mo2  1  1.81361000  7.23918000  1.83607000  1
  Mo  Mo3  1  7.26831000  1.87715000  1.81423000  1
  Mo  Mo4  1  3.61282000  7.28774000  3.57733000  1
  Mo  Mo5  1  5.43031000  1.80822000  3.59128000  1
  Mo  Mo6  1  5.46526000  0.01940850  1.82989000  1
  Mo  Mo7  1  3.62432000  1.86018000  1.75690000  1
  Mo  Mo8  1  7.25656000  3.65450000  0.04191790  1
  Mo  Mo9  1  1.84827000  5.46072000  0.08328300  1
  Mo  Mo10  1  1.85074000  3.63801000  1.80693000  1
  Mo  Mo11  1  0.03592460  5.43956000  1.89246000  1
  Mo  Mo12  1  3.64224000  3.62928000  0.00768853  1
  Mo  Mo13  1  5.42303000  5.47384000  3.71186000  1
  Mo  Mo14  1  5.45013000  3.64727000  1.78294000  1
  Mo  Mo15  1  3.67926000  5.38643000  1.78241000  1
