# generated using pymatgen
data_Mo
_symmetry_space_group_name_H-M   'P 1'
_cell_length_a   7.27963737
_cell_length_b   7.27963737
_cell_length_c   3.63981867
_cell_angle_alpha   90.00000000
_cell_angle_beta   90.00000000
_cell_angle_gamma   90.00000000
_symmetry_Int_Tables_number   1
_chemical_formula_structural   Mo
_chemical_formula_sum   Mo16
_cell_volume   192.88534851
_cell_formula_units_Z   16
loop_
 _symmetry_equiv_pos_site_id
 _symmetry_equiv_pos_as_xyz
  1  'x, y, z'
loop_
 _atom_site_type_symbol
 _atom_site_label
 _atom_site_symmetry_multiplicity
 _atom_site_fract_x
 _atom_site_fract_y
 _atom_site_fract_z
 _atom_site_occupancy
  Mo  Mo0  1  0.00873570  -0.03048980  0.01816510  1
  Mo  Mo1  1  1.81473000  1.84202000  -0.03350160  1
  Mo  Mo2  1  1.84446000  7.32277000  1.82675000  1
  Mo  Mo3  1  7.24287000  1.85156000  1.82990000  1
  Mo  Mo4  1  3.66206000  7.27038000  3.70948000  1
  Mo  Mo5  1  5.51661000  1.83088000  3.61178000  1
  Mo  Mo6  1  5.48005000  -0.02452300  1.86521000  1
  Mo  Mo7  1  3.66517000  1.86111000  1.85022000  1
  Mo  Mo8  1  7.28663000  3.64926000  -0.05060770  1
  Mo  Mo9  1  1.79805000  5.49414000  0.02405740  1
  Mo  Mo10  1  1.80386000  3.61081000  1.76338000  1
  Mo  Mo11  1  0.00830596  5.44100000  1.75897000  1
  Mo  Mo12  1  3.61246000  3.64608000  -0.03294010  1
  Mo  Mo13  1  5.44933000  5.44840000  3.68714000  1
  Mo  Mo14  1  5.43686000  3.61898000  1.78186000  1
  Mo  Mo15  1  3.59383000  5.39162000  1.86232000  1
