# generated using pymatgen
data_Mo
_symmetry_space_group_name_H-M   'P 1'
_cell_length_a   7.27963737
_cell_length_b   7.27963737
_cell_length_c   3.63981867
_cell_angle_alpha   90.00000000
_cell_angle_beta   90.00000000
_cell_angle_gamma   90.00000000
_symmetry_Int_Tables_number   1
_chemical_formula_structural   Mo
_chemical_formula_sum   Mo16
_cell_volume   192.88534851
_cell_formula_units_Z   16
loop_
 _symmetry_equiv_pos_site_id
 _symmetry_equiv_pos_as_xyz
  1  'x, y, z'
loop_
 _atom_site_type_symbol
 _atom_site_label
 _atom_site_symmetry_multiplicity
 _atom_site_fract_x
 _atom_site_fract_y
 _atom_site_fract_z
 _atom_site_occupancy
  Mo  Mo0  1  -0.00405573  -0.04341300  0.02215970  1
  Mo  Mo1  1  1.84794000  1.81911000  0.02684970  1
  Mo  Mo2  1  1.78454000  7.35994000  1.85421000  1
  Mo  Mo3  1  7.27394000  1.77081000  1.83097000  1
  Mo  Mo4  1  3.61844000  7.28149000  3.70296000  1
  Mo  Mo5  1  5.44546000  1.78260000  3.66927000  1
  Mo  Mo6  1  5.42463000  0.03463410  1.87067000  1
  Mo  Mo7  1  3.68205000  1.81523000  1.86514000  1
  Mo  Mo8  1  7.30709000  3.59996000  -0.03394430  1
  Mo  Mo9  1  1.82231000  5.44028000  -0.06753870  1
  Mo  Mo10  1  1.84856000  3.61864000  1.78449000  1
  Mo  Mo11  1  -0.00457117  5.51565000  1.73713000  1
  Mo  Mo12  1  3.67015000  3.63864000  -0.02623980  1
  Mo  Mo13  1  5.47001000  5.43262000  3.59311000  1
  Mo  Mo14  1  5.44851000  3.65423000  1.81008000  1
  Mo  Mo15  1  3.58900000  5.50356000  1.83286000  1
