# generated using pymatgen
data_Mo
_symmetry_space_group_name_H-M   'P 1'
_cell_length_a   7.27808089
_cell_length_b   7.27808089
_cell_length_c   3.63904047
_cell_angle_alpha   90.00000000
_cell_angle_beta   90.00000000
_cell_angle_gamma   90.00000000
_symmetry_Int_Tables_number   1
_chemical_formula_structural   Mo
_chemical_formula_sum   Mo16
_cell_volume   192.76165285
_cell_formula_units_Z   16
loop_
 _symmetry_equiv_pos_site_id
 _symmetry_equiv_pos_as_xyz
  1  'x, y, z'
loop_
 _atom_site_type_symbol
 _atom_site_label
 _atom_site_symmetry_multiplicity
 _atom_site_fract_x
 _atom_site_fract_y
 _atom_site_fract_z
 _atom_site_occupancy
  Mo  Mo0  1  0.01432680  7.27904000  -0.00632965  1
  Mo  Mo1  1  1.82037000  1.81823000  -0.00183858  1
  Mo  Mo2  1  1.80825000  7.28252000  1.81884000  1
  Mo  Mo3  1  7.27320000  1.82815000  1.81276000  1
  Mo  Mo4  1  3.65476000  7.27822000  3.63988000  1
  Mo  Mo5  1  5.44481000  1.80858000  -0.00605461  1
  Mo  Mo6  1  5.46110000  -0.00783749  1.81208000  1
  Mo  Mo7  1  3.63464000  1.82892000  1.81435000  1
  Mo  Mo8  1  7.27318000  3.64510000  3.62515000  1
  Mo  Mo9  1  1.82307000  5.45200000  3.64663000  1
  Mo  Mo10  1  1.82054000  3.62906000  1.81909000  1
  Mo  Mo11  1  7.26870000  5.46131000  1.81692000  1
  Mo  Mo12  1  3.63234000  3.64759000  0.00660732  1
  Mo  Mo13  1  5.45679000  5.45087000  3.64446000  1
  Mo  Mo14  1  5.47046000  3.63454000  1.83234000  1
  Mo  Mo15  1  3.64553000  5.46580000  1.83712000  1
