# generated using pymatgen
data_Mo
_symmetry_space_group_name_H-M   'P 1'
_cell_length_a   7.27963737
_cell_length_b   7.27963737
_cell_length_c   3.63981867
_cell_angle_alpha   90.00000000
_cell_angle_beta   90.00000000
_cell_angle_gamma   90.00000000
_symmetry_Int_Tables_number   1
_chemical_formula_structural   Mo
_chemical_formula_sum   Mo16
_cell_volume   192.88534851
_cell_formula_units_Z   16
loop_
 _symmetry_equiv_pos_site_id
 _symmetry_equiv_pos_as_xyz
  1  'x, y, z'
loop_
 _atom_site_type_symbol
 _atom_site_label
 _atom_site_symmetry_multiplicity
 _atom_site_fract_x
 _atom_site_fract_y
 _atom_site_fract_z
 _atom_site_occupancy
  Mo  Mo0  1  -0.03288430  -0.01323090  -0.07314560  1
  Mo  Mo1  1  1.80039000  1.80725000  -0.02589950  1
  Mo  Mo2  1  1.83325000  7.29190000  1.77526000  1
  Mo  Mo3  1  7.33092000  1.81926000  1.75775000  1
  Mo  Mo4  1  3.68402000  7.21245000  3.64760000  1
  Mo  Mo5  1  5.49088000  1.75377000  3.63861000  1
  Mo  Mo6  1  5.47906000  0.05275800  1.80019000  1
  Mo  Mo7  1  3.58982000  1.82292000  1.79801000  1
  Mo  Mo8  1  7.28313000  3.63016000  0.00933272  1
  Mo  Mo9  1  1.76158000  5.46197000  -0.04243690  1
  Mo  Mo10  1  1.77761000  3.68924000  1.86138000  1
  Mo  Mo11  1  0.00222539  5.49273000  1.82748000  1
  Mo  Mo12  1  3.63964000  3.66450000  0.09464760  1
  Mo  Mo13  1  5.48717000  5.43177000  3.63974000  1
  Mo  Mo14  1  5.47296000  3.61723000  1.86842000  1
  Mo  Mo15  1  3.62422000  5.48931000  1.89524000  1
