# generated using pymatgen
data_Mo
_symmetry_space_group_name_H-M   'P 1'
_cell_length_a   7.27963737
_cell_length_b   7.27963737
_cell_length_c   3.63981867
_cell_angle_alpha   90.00000000
_cell_angle_beta   90.00000000
_cell_angle_gamma   90.00000000
_symmetry_Int_Tables_number   1
_chemical_formula_structural   Mo
_chemical_formula_sum   Mo16
_cell_volume   192.88534851
_cell_formula_units_Z   16
loop_
 _symmetry_equiv_pos_site_id
 _symmetry_equiv_pos_as_xyz
  1  'x, y, z'
loop_
 _atom_site_type_symbol
 _atom_site_label
 _atom_site_symmetry_multiplicity
 _atom_site_fract_x
 _atom_site_fract_y
 _atom_site_fract_z
 _atom_site_occupancy
  Mo  Mo0  1  -0.01435960  -0.00645256  -0.01126130  1
  Mo  Mo1  1  1.81861000  1.84479000  -0.02523200  1
  Mo  Mo2  1  1.81988000  7.31099000  1.85458000  1
  Mo  Mo3  1  7.29089000  1.80827000  1.70695000  1
  Mo  Mo4  1  3.66233000  7.30007000  3.70943000  1
  Mo  Mo5  1  5.45289000  1.83173000  3.64742000  1
  Mo  Mo6  1  5.45193000  -0.03329460  1.87309000  1
  Mo  Mo7  1  3.68827000  1.84474000  1.80039000  1
  Mo  Mo8  1  7.28138000  3.63619000  -0.06480730  1
  Mo  Mo9  1  1.82680000  5.40282000  -0.01226310  1
  Mo  Mo10  1  1.78986000  3.64484000  1.80192000  1
  Mo  Mo11  1  0.01482050  5.44841000  1.84480000  1
  Mo  Mo12  1  3.60571000  3.62764000  0.01792240  1
  Mo  Mo13  1  5.43354000  5.39636000  3.65140000  1
  Mo  Mo14  1  5.48565000  3.67967000  1.80522000  1
  Mo  Mo15  1  3.61579000  5.48724000  1.87262000  1
