# generated using pymatgen
data_Mo
_symmetry_space_group_name_H-M   'P 1'
_cell_length_a   7.27963737
_cell_length_b   7.27963737
_cell_length_c   3.63981867
_cell_angle_alpha   90.00000000
_cell_angle_beta   90.00000000
_cell_angle_gamma   90.00000000
_symmetry_Int_Tables_number   1
_chemical_formula_structural   Mo
_chemical_formula_sum   Mo16
_cell_volume   192.88534851
_cell_formula_units_Z   16
loop_
 _symmetry_equiv_pos_site_id
 _symmetry_equiv_pos_as_xyz
  1  'x, y, z'
loop_
 _atom_site_type_symbol
 _atom_site_label
 _atom_site_symmetry_multiplicity
 _atom_site_fract_x
 _atom_site_fract_y
 _atom_site_fract_z
 _atom_site_occupancy
  Mo  Mo0  1  -0.00748492  0.04918470  -0.05592250  1
  Mo  Mo1  1  1.85460000  1.80464000  0.04243020  1
  Mo  Mo2  1  1.80956000  7.29998000  1.82427000  1
  Mo  Mo3  1  7.28065000  1.79410000  1.80861000  1
  Mo  Mo4  1  3.59473000  7.32242000  3.68107000  1
  Mo  Mo5  1  5.45873000  1.78812000  3.67024000  1
  Mo  Mo6  1  5.46729000  -0.07444000  1.83469000  1
  Mo  Mo7  1  3.65575000  1.83206000  1.91294000  1
  Mo  Mo8  1  7.26930000  3.64318000  -0.05550080  1
  Mo  Mo9  1  1.78443000  5.53793000  -0.02425370  1
  Mo  Mo10  1  1.85157000  3.60529000  1.81647000  1
  Mo  Mo11  1  0.02576150  5.43803000  1.79821000  1
  Mo  Mo12  1  3.65455000  3.62910000  0.01700450  1
  Mo  Mo13  1  5.42257000  5.50676000  3.62888000  1
  Mo  Mo14  1  5.48169000  3.61606000  1.79120000  1
  Mo  Mo15  1  3.62030000  5.43158000  1.78186000  1
