# generated using pymatgen
data_Mo
_symmetry_space_group_name_H-M   'P 1'
_cell_length_a   7.27963737
_cell_length_b   7.27963737
_cell_length_c   3.63981867
_cell_angle_alpha   90.00000000
_cell_angle_beta   90.00000000
_cell_angle_gamma   90.00000000
_symmetry_Int_Tables_number   1
_chemical_formula_structural   Mo
_chemical_formula_sum   Mo16
_cell_volume   192.88534851
_cell_formula_units_Z   16
loop_
 _symmetry_equiv_pos_site_id
 _symmetry_equiv_pos_as_xyz
  1  'x, y, z'
loop_
 _atom_site_type_symbol
 _atom_site_label
 _atom_site_symmetry_multiplicity
 _atom_site_fract_x
 _atom_site_fract_y
 _atom_site_fract_z
 _atom_site_occupancy
  Mo  Mo0  1  0.03300210  0.07605050  -0.07185890  1
  Mo  Mo1  1  1.78554000  1.85163000  0.00820599  1
  Mo  Mo2  1  1.83455000  7.25041000  1.80613000  1
  Mo  Mo3  1  7.29065000  1.81932000  1.77686000  1
  Mo  Mo4  1  3.65409000  7.29132000  3.58758000  1
  Mo  Mo5  1  5.47943000  1.80238000  3.61960000  1
  Mo  Mo6  1  5.46330000  -0.02452220  1.78330000  1
  Mo  Mo7  1  3.64156000  1.75791000  1.77887000  1
  Mo  Mo8  1  7.28153000  3.63069000  0.00508154  1
  Mo  Mo9  1  1.76970000  5.50175000  0.02589190  1
  Mo  Mo10  1  1.80829000  3.64163000  1.87007000  1
  Mo  Mo11  1  0.02411400  5.45688000  1.85376000  1
  Mo  Mo12  1  3.58644000  3.62524000  0.01655320  1
  Mo  Mo13  1  5.48408000  5.49130000  3.68012000  1
  Mo  Mo14  1  5.47732000  3.62776000  1.84325000  1
  Mo  Mo15  1  3.61039000  5.42424000  1.88875000  1
