# generated using pymatgen
data_Mo
_symmetry_space_group_name_H-M   'P 1'
_cell_length_a   7.27963737
_cell_length_b   7.27963737
_cell_length_c   3.63981867
_cell_angle_alpha   90.00000000
_cell_angle_beta   90.00000000
_cell_angle_gamma   90.00000000
_symmetry_Int_Tables_number   1
_chemical_formula_structural   Mo
_chemical_formula_sum   Mo16
_cell_volume   192.88534851
_cell_formula_units_Z   16
loop_
 _symmetry_equiv_pos_site_id
 _symmetry_equiv_pos_as_xyz
  1  'x, y, z'
loop_
 _atom_site_type_symbol
 _atom_site_label
 _atom_site_symmetry_multiplicity
 _atom_site_fract_x
 _atom_site_fract_y
 _atom_site_fract_z
 _atom_site_occupancy
  Mo  Mo0  1  0.01514950  0.06843890  0.01496810  1
  Mo  Mo1  1  1.81807000  1.80470000  -0.01189670  1
  Mo  Mo2  1  1.88250000  7.26259000  1.79863000  1
  Mo  Mo3  1  7.22747000  1.82046000  1.81799000  1
  Mo  Mo4  1  3.64121000  7.29790000  3.61290000  1
  Mo  Mo5  1  5.44281000  1.84607000  3.59915000  1
  Mo  Mo6  1  5.45375000  -0.05277090  1.79819000  1
  Mo  Mo7  1  3.65236000  1.80035000  1.78847000  1
  Mo  Mo8  1  7.24721000  3.63061000  0.03467870  1
  Mo  Mo9  1  1.82126000  5.45186000  0.03942510  1
  Mo  Mo10  1  1.82186000  3.61159000  1.82577000  1
  Mo  Mo11  1  0.02372170  5.44771000  1.91004000  1
  Mo  Mo12  1  3.63293000  3.62177000  -0.01715900  1
  Mo  Mo13  1  5.45345000  5.48363000  3.68253000  1
  Mo  Mo14  1  5.42535000  3.67683000  1.80376000  1
  Mo  Mo15  1  3.66489000  5.45225000  1.77474000  1
