# generated using pymatgen
data_Mo
_symmetry_space_group_name_H-M   'P 1'
_cell_length_a   7.27963737
_cell_length_b   7.27963737
_cell_length_c   3.63981867
_cell_angle_alpha   90.00000000
_cell_angle_beta   90.00000000
_cell_angle_gamma   90.00000000
_symmetry_Int_Tables_number   1
_chemical_formula_structural   Mo
_chemical_formula_sum   Mo16
_cell_volume   192.88534851
_cell_formula_units_Z   16
loop_
 _symmetry_equiv_pos_site_id
 _symmetry_equiv_pos_as_xyz
  1  'x, y, z'
loop_
 _atom_site_type_symbol
 _atom_site_label
 _atom_site_symmetry_multiplicity
 _atom_site_fract_x
 _atom_site_fract_y
 _atom_site_fract_z
 _atom_site_occupancy
  Mo  Mo0  1  0.05774190  0.02690940  -0.00856544  1
  Mo  Mo1  1  1.82574000  1.84376000  0.04109560  1
  Mo  Mo2  1  1.83576000  7.27840000  1.75254000  1
  Mo  Mo3  1  7.29281000  1.76140000  1.80594000  1
  Mo  Mo4  1  3.65017000  7.30129000  3.66338000  1
  Mo  Mo5  1  5.47439000  1.80618000  3.71643000  1
  Mo  Mo6  1  5.45585000  -0.03401620  1.76391000  1
  Mo  Mo7  1  3.67838000  1.79859000  1.88743000  1
  Mo  Mo8  1  7.26097000  3.66180000  -0.00452653  1
  Mo  Mo9  1  1.83818000  5.48703000  -0.03867010  1
  Mo  Mo10  1  1.79684000  3.66412000  1.82275000  1
  Mo  Mo11  1  -0.04193910  5.47102000  1.80893000  1
  Mo  Mo12  1  3.64645000  3.63551000  -0.00333253  1
  Mo  Mo13  1  5.44270000  5.47305000  3.60389000  1
  Mo  Mo14  1  5.40227000  3.59994000  1.83381000  1
  Mo  Mo15  1  3.60769000  5.44904000  1.82717000  1
