# generated using pymatgen
data_Mo
_symmetry_space_group_name_H-M   'P 1'
_cell_length_a   7.27808089
_cell_length_b   7.27808089
_cell_length_c   3.63904047
_cell_angle_alpha   90.00000000
_cell_angle_beta   90.00000000
_cell_angle_gamma   90.00000000
_symmetry_Int_Tables_number   1
_chemical_formula_structural   Mo
_chemical_formula_sum   Mo16
_cell_volume   192.76165285
_cell_formula_units_Z   16
loop_
 _symmetry_equiv_pos_site_id
 _symmetry_equiv_pos_as_xyz
  1  'x, y, z'
loop_
 _atom_site_type_symbol
 _atom_site_label
 _atom_site_symmetry_multiplicity
 _atom_site_fract_x
 _atom_site_fract_y
 _atom_site_fract_z
 _atom_site_occupancy
  Mo  Mo0  1  -0.00829468  7.27643000  0.00805130  1
  Mo  Mo1  1  1.81426000  1.81954000  -0.01278920  1
  Mo  Mo2  1  1.82426000  7.26755000  1.82320000  1
  Mo  Mo3  1  7.28065000  1.81958000  1.82353000  1
  Mo  Mo4  1  3.62265000  7.26811000  3.63496000  1
  Mo  Mo5  1  5.45914000  1.83381000  -0.00363782  1
  Mo  Mo6  1  5.46184000  0.00376725  1.82565000  1
  Mo  Mo7  1  3.63435000  1.81426000  1.81656000  1
  Mo  Mo8  1  7.28959000  3.62602000  3.63651000  1
  Mo  Mo9  1  1.82590000  5.45848000  3.64153000  1
  Mo  Mo10  1  1.82047000  3.64917000  1.81970000  1
  Mo  Mo11  1  7.28699000  5.45095000  1.81756000  1
  Mo  Mo12  1  3.63928000  3.63385000  0.00467046  1
  Mo  Mo13  1  5.46172000  5.46692000  3.64046000  1
  Mo  Mo14  1  5.44645000  3.65180000  1.81567000  1
  Mo  Mo15  1  3.64282000  5.46182000  1.82037000  1
