# generated using pymatgen
data_Mo
_symmetry_space_group_name_H-M   'P 1'
_cell_length_a   7.27808089
_cell_length_b   7.27808089
_cell_length_c   3.63904047
_cell_angle_alpha   90.00000000
_cell_angle_beta   90.00000000
_cell_angle_gamma   90.00000000
_symmetry_Int_Tables_number   1
_chemical_formula_structural   Mo
_chemical_formula_sum   Mo16
_cell_volume   192.76165285
_cell_formula_units_Z   16
loop_
 _symmetry_equiv_pos_site_id
 _symmetry_equiv_pos_as_xyz
  1  'x, y, z'
loop_
 _atom_site_type_symbol
 _atom_site_label
 _atom_site_symmetry_multiplicity
 _atom_site_fract_x
 _atom_site_fract_y
 _atom_site_fract_z
 _atom_site_occupancy
  Mo  Mo0  1  0.01165380  7.27888000  -0.00894208  1
  Mo  Mo1  1  1.81425000  1.82430000  -0.00095634  1
  Mo  Mo2  1  1.81969000  7.28071000  1.81492000  1
  Mo  Mo3  1  7.27188000  1.81346000  1.79956000  1
  Mo  Mo4  1  3.64204000  7.27661000  3.65222000  1
  Mo  Mo5  1  5.46095000  1.81825000  -0.00669351  1
  Mo  Mo6  1  5.44904000  0.00313229  1.81593000  1
  Mo  Mo7  1  3.64311000  1.81757000  1.81842000  1
  Mo  Mo8  1  7.26488000  3.62233000  3.64104000  1
  Mo  Mo9  1  1.82429000  5.46338000  3.63956000  1
  Mo  Mo10  1  1.82265000  3.64958000  1.82216000  1
  Mo  Mo11  1  7.28694000  5.46052000  1.82330000  1
  Mo  Mo12  1  3.62587000  3.63182000  0.00492235  1
  Mo  Mo13  1  5.46137000  5.45960000  3.64104000  1
  Mo  Mo14  1  5.46488000  3.64541000  1.82664000  1
  Mo  Mo15  1  3.63858000  5.45653000  1.82888000  1
