# generated using pymatgen
data_Mo
_symmetry_space_group_name_H-M   'P 1'
_cell_length_a   7.27963737
_cell_length_b   7.27963737
_cell_length_c   3.63981867
_cell_angle_alpha   90.00000000
_cell_angle_beta   90.00000000
_cell_angle_gamma   90.00000000
_symmetry_Int_Tables_number   1
_chemical_formula_structural   Mo
_chemical_formula_sum   Mo16
_cell_volume   192.88534851
_cell_formula_units_Z   16
loop_
 _symmetry_equiv_pos_site_id
 _symmetry_equiv_pos_as_xyz
  1  'x, y, z'
loop_
 _atom_site_type_symbol
 _atom_site_label
 _atom_site_symmetry_multiplicity
 _atom_site_fract_x
 _atom_site_fract_y
 _atom_site_fract_z
 _atom_site_occupancy
  Mo  Mo0  1  0.02328890  -0.02879210  -0.02083760  1
  Mo  Mo1  1  1.84467000  1.82486000  -0.01246070  1
  Mo  Mo2  1  1.82335000  7.33159000  1.80464000  1
  Mo  Mo3  1  7.26291000  1.85279000  1.78508000  1
  Mo  Mo4  1  3.67392000  7.22533000  3.59188000  1
  Mo  Mo5  1  5.41507000  1.81949000  3.59713000  1
  Mo  Mo6  1  5.47000000  0.00111846  1.77711000  1
  Mo  Mo7  1  3.65238000  1.82656000  1.75360000  1
  Mo  Mo8  1  7.22250000  3.66484000  0.06022390  1
  Mo  Mo9  1  1.85462000  5.46770000  0.03526020  1
  Mo  Mo10  1  1.80682000  3.59387000  1.87515000  1
  Mo  Mo11  1  0.00403412  5.48869000  1.85004000  1
  Mo  Mo12  1  3.65561000  3.63770000  0.00530428  1
  Mo  Mo13  1  5.45913000  5.44534000  3.66388000  1
  Mo  Mo14  1  5.43415000  3.65273000  1.84039000  1
  Mo  Mo15  1  3.62154000  5.42018000  1.86578000  1
