# generated using pymatgen
data_Mo
_symmetry_space_group_name_H-M   'P 1'
_cell_length_a   7.28075024
_cell_length_b   7.28075024
_cell_length_c   3.64037514
_cell_angle_alpha   90.00000000
_cell_angle_beta   90.00000000
_cell_angle_gamma   90.00000000
_symmetry_Int_Tables_number   1
_chemical_formula_structural   Mo
_chemical_formula_sum   Mo16
_cell_volume   192.97382539
_cell_formula_units_Z   16
loop_
 _symmetry_equiv_pos_site_id
 _symmetry_equiv_pos_as_xyz
  1  'x, y, z'
loop_
 _atom_site_type_symbol
 _atom_site_label
 _atom_site_symmetry_multiplicity
 _atom_site_fract_x
 _atom_site_fract_y
 _atom_site_fract_z
 _atom_site_occupancy
  Mo  Mo0  1  0.07345270  7.24035000  3.60930000  1
  Mo  Mo1  1  1.81216000  1.85133000  3.65748000  1
  Mo  Mo2  1  1.86525000  0.00261644  1.83913000  1
  Mo  Mo3  1  -0.04192600  1.82017000  1.73048000  1
  Mo  Mo4  1  3.62668000  0.02301730  -0.03871610  1
  Mo  Mo5  1  5.48363000  1.83079000  3.62805000  1
  Mo  Mo6  1  5.47556000  7.21991000  1.83666000  1
  Mo  Mo7  1  3.61878000  1.80531000  1.80427000  1
  Mo  Mo8  1  7.28192000  3.65933000  3.67136000  1
  Mo  Mo9  1  1.81510000  5.42793000  3.67329000  1
  Mo  Mo10  1  1.85006000  3.68940000  1.83251000  1
  Mo  Mo11  1  -0.01127660  5.45424000  1.78030000  1
  Mo  Mo12  1  3.66790000  3.62904000  3.67400000  1
  Mo  Mo13  1  5.43656000  5.46803000  -0.00431057  1
  Mo  Mo14  1  5.41140000  3.60003000  1.80668000  1
  Mo  Mo15  1  3.57799000  5.50250000  1.89228000  1
