# generated using pymatgen
data_Mo
_symmetry_space_group_name_H-M   'P 1'
_cell_length_a   7.28075024
_cell_length_b   7.28075024
_cell_length_c   3.64037514
_cell_angle_alpha   90.00000000
_cell_angle_beta   90.00000000
_cell_angle_gamma   90.00000000
_symmetry_Int_Tables_number   1
_chemical_formula_structural   Mo
_chemical_formula_sum   Mo16
_cell_volume   192.97382539
_cell_formula_units_Z   16
loop_
 _symmetry_equiv_pos_site_id
 _symmetry_equiv_pos_as_xyz
  1  'x, y, z'
loop_
 _atom_site_type_symbol
 _atom_site_label
 _atom_site_symmetry_multiplicity
 _atom_site_fract_x
 _atom_site_fract_y
 _atom_site_fract_z
 _atom_site_occupancy
  Mo  Mo0  1  0.01559510  7.31122000  3.64781000  1
  Mo  Mo1  1  1.83750000  1.82310000  3.64480000  1
  Mo  Mo2  1  1.84821000  -0.00748685  1.78682000  1
  Mo  Mo3  1  -0.03208570  1.85902000  1.86909000  1
  Mo  Mo4  1  3.68109000  -0.01831630  0.00756123  1
  Mo  Mo5  1  5.42403000  1.76207000  3.63595000  1
  Mo  Mo6  1  5.52671000  7.25664000  1.78687000  1
  Mo  Mo7  1  3.60820000  1.84058000  1.78818000  1
  Mo  Mo8  1  7.27478000  3.61490000  3.67664000  1
  Mo  Mo9  1  1.78291000  5.47240000  3.59047000  1
  Mo  Mo10  1  1.82001000  3.64516000  1.80329000  1
  Mo  Mo11  1  0.05206890  5.43666000  1.88851000  1
  Mo  Mo12  1  3.60683000  3.65200000  3.65571000  1
  Mo  Mo13  1  5.40964000  5.43017000  0.01086850  1
  Mo  Mo14  1  5.49101000  3.67684000  1.80600000  1
  Mo  Mo15  1  3.59675000  5.46904000  1.79418000  1
