# generated using pymatgen
data_Mo
_symmetry_space_group_name_H-M   'P 1'
_cell_length_a   7.28075024
_cell_length_b   7.28075024
_cell_length_c   3.64037514
_cell_angle_alpha   90.00000000
_cell_angle_beta   90.00000000
_cell_angle_gamma   90.00000000
_symmetry_Int_Tables_number   1
_chemical_formula_structural   Mo
_chemical_formula_sum   Mo16
_cell_volume   192.97382539
_cell_formula_units_Z   16
loop_
 _symmetry_equiv_pos_site_id
 _symmetry_equiv_pos_as_xyz
  1  'x, y, z'
loop_
 _atom_site_type_symbol
 _atom_site_label
 _atom_site_symmetry_multiplicity
 _atom_site_fract_x
 _atom_site_fract_y
 _atom_site_fract_z
 _atom_site_occupancy
  Mo  Mo0  1  -0.01222910  7.25580000  3.64969000  1
  Mo  Mo1  1  1.74283000  1.78460000  3.63376000  1
  Mo  Mo2  1  1.79783000  0.00205225  1.85181000  1
  Mo  Mo3  1  -0.00752571  1.84915000  1.81734000  1
  Mo  Mo4  1  3.71874000  0.04430000  0.04436110  1
  Mo  Mo5  1  5.48731000  1.79898000  3.62111000  1
  Mo  Mo6  1  5.47417000  7.24200000  1.82524000  1
  Mo  Mo7  1  3.60445000  1.82212000  1.81315000  1
  Mo  Mo8  1  7.26356000  3.61738000  3.61903000  1
  Mo  Mo9  1  1.78593000  5.48167000  3.63947000  1
  Mo  Mo10  1  1.87119000  3.65171000  1.73999000  1
  Mo  Mo11  1  0.02780250  5.46979000  1.90439000  1
  Mo  Mo12  1  3.63331000  3.67697000  3.63141000  1
  Mo  Mo13  1  5.41762000  5.42577000  -0.01959540  1
  Mo  Mo14  1  5.46410000  3.65807000  1.82189000  1
  Mo  Mo15  1  3.67414000  5.44364000  1.79970000  1
