# generated using pymatgen
data_Mo
_symmetry_space_group_name_H-M   'P 1'
_cell_length_a   7.28075024
_cell_length_b   7.28075024
_cell_length_c   3.64037514
_cell_angle_alpha   90.00000000
_cell_angle_beta   90.00000000
_cell_angle_gamma   90.00000000
_symmetry_Int_Tables_number   1
_chemical_formula_structural   Mo
_chemical_formula_sum   Mo16
_cell_volume   192.97382539
_cell_formula_units_Z   16
loop_
 _symmetry_equiv_pos_site_id
 _symmetry_equiv_pos_as_xyz
  1  'x, y, z'
loop_
 _atom_site_type_symbol
 _atom_site_label
 _atom_site_symmetry_multiplicity
 _atom_site_fract_x
 _atom_site_fract_y
 _atom_site_fract_z
 _atom_site_occupancy
  Mo  Mo0  1  -0.02102920  7.27741000  3.68529000  1
  Mo  Mo1  1  1.92360000  1.86027000  3.63495000  1
  Mo  Mo2  1  1.83622000  0.00407862  1.90689000  1
  Mo  Mo3  1  0.00959873  1.80778000  1.82434000  1
  Mo  Mo4  1  3.60063000  -0.01654200  0.00292995  1
  Mo  Mo5  1  5.42221000  1.83831000  3.61014000  1
  Mo  Mo6  1  5.41793000  7.27695000  1.79416000  1
  Mo  Mo7  1  3.65433000  1.79071000  1.78564000  1
  Mo  Mo8  1  7.28894000  3.60289000  3.60496000  1
  Mo  Mo9  1  1.82710000  5.44989000  3.65652000  1
  Mo  Mo10  1  1.74016000  3.65802000  1.77227000  1
  Mo  Mo11  1  0.03916650  5.46522000  1.85937000  1
  Mo  Mo12  1  3.65233000  3.68395000  3.63141000  1
  Mo  Mo13  1  5.43957000  5.47701000  0.01989300  1
  Mo  Mo14  1  5.43923000  3.62450000  1.79400000  1
  Mo  Mo15  1  3.67324000  5.42353000  1.80997000  1
