# generated using pymatgen
data_Mo
_symmetry_space_group_name_H-M   'P 1'
_cell_length_a   7.28075024
_cell_length_b   7.28075024
_cell_length_c   3.64037514
_cell_angle_alpha   90.00000000
_cell_angle_beta   90.00000000
_cell_angle_gamma   90.00000000
_symmetry_Int_Tables_number   1
_chemical_formula_structural   Mo
_chemical_formula_sum   Mo16
_cell_volume   192.97382539
_cell_formula_units_Z   16
loop_
 _symmetry_equiv_pos_site_id
 _symmetry_equiv_pos_as_xyz
  1  'x, y, z'
loop_
 _atom_site_type_symbol
 _atom_site_label
 _atom_site_symmetry_multiplicity
 _atom_site_fract_x
 _atom_site_fract_y
 _atom_site_fract_z
 _atom_site_occupancy
  Mo  Mo0  1  -0.00678367  7.22097000  3.58623000  1
  Mo  Mo1  1  1.80120000  1.77137000  3.65377000  1
  Mo  Mo2  1  1.77580000  -0.00456377  1.80083000  1
  Mo  Mo3  1  0.01398620  1.85436000  1.82045000  1
  Mo  Mo4  1  3.66054000  0.01402360  0.02158850  1
  Mo  Mo5  1  5.50840000  1.84749000  3.64584000  1
  Mo  Mo6  1  5.48003000  7.29589000  1.77237000  1
  Mo  Mo7  1  3.63227000  1.78468000  1.83026000  1
  Mo  Mo8  1  7.26969000  3.62410000  3.67788000  1
  Mo  Mo9  1  1.79216000  5.49818000  3.63375000  1
  Mo  Mo10  1  1.89145000  3.62503000  1.79124000  1
  Mo  Mo11  1  0.00082537  5.50082000  1.87242000  1
  Mo  Mo12  1  3.58851000  3.62521000  3.69475000  1
  Mo  Mo13  1  5.40143000  5.46572000  -0.04805740  1
  Mo  Mo14  1  5.49070000  3.65466000  1.85069000  1
  Mo  Mo15  1  3.64304000  5.44607000  1.78872000  1
