# generated using pymatgen
data_Mo
_symmetry_space_group_name_H-M   'P 1'
_cell_length_a   7.28075024
_cell_length_b   7.28075024
_cell_length_c   3.64037514
_cell_angle_alpha   90.00000000
_cell_angle_beta   90.00000000
_cell_angle_gamma   90.00000000
_symmetry_Int_Tables_number   1
_chemical_formula_structural   Mo
_chemical_formula_sum   Mo16
_cell_volume   192.97382539
_cell_formula_units_Z   16
loop_
 _symmetry_equiv_pos_site_id
 _symmetry_equiv_pos_as_xyz
  1  'x, y, z'
loop_
 _atom_site_type_symbol
 _atom_site_label
 _atom_site_symmetry_multiplicity
 _atom_site_fract_x
 _atom_site_fract_y
 _atom_site_fract_z
 _atom_site_occupancy
  Mo  Mo0  1  -0.02473540  7.31371000  3.57929000  1
  Mo  Mo1  1  1.83277000  1.79597000  3.67473000  1
  Mo  Mo2  1  1.85838000  -0.03607590  1.81429000  1
  Mo  Mo3  1  -0.00372905  1.88729000  1.80969000  1
  Mo  Mo4  1  3.68638000  0.03897010  -0.01570110  1
  Mo  Mo5  1  5.48825000  1.82442000  3.65245000  1
  Mo  Mo6  1  5.43825000  7.24640000  1.77088000  1
  Mo  Mo7  1  3.56979000  1.81461000  1.84550000  1
  Mo  Mo8  1  7.27034000  3.61743000  3.64774000  1
  Mo  Mo9  1  1.80332000  5.44050000  3.63309000  1
  Mo  Mo10  1  1.89605000  3.62228000  1.80364000  1
  Mo  Mo11  1  0.01064340  5.49428000  1.84045000  1
  Mo  Mo12  1  3.64118000  3.64085000  3.70154000  1
  Mo  Mo13  1  5.41666000  5.43698000  -0.02092800  1
  Mo  Mo14  1  5.45328000  3.64986000  1.87388000  1
  Mo  Mo15  1  3.60641000  5.43653000  1.78220000  1
