# generated using pymatgen
data_Mo
_symmetry_space_group_name_H-M   'P 1'
_cell_length_a   7.28075024
_cell_length_b   7.28075024
_cell_length_c   3.64037514
_cell_angle_alpha   90.00000000
_cell_angle_beta   90.00000000
_cell_angle_gamma   90.00000000
_symmetry_Int_Tables_number   1
_chemical_formula_structural   Mo
_chemical_formula_sum   Mo16
_cell_volume   192.97382539
_cell_formula_units_Z   16
loop_
 _symmetry_equiv_pos_site_id
 _symmetry_equiv_pos_as_xyz
  1  'x, y, z'
loop_
 _atom_site_type_symbol
 _atom_site_label
 _atom_site_symmetry_multiplicity
 _atom_site_fract_x
 _atom_site_fract_y
 _atom_site_fract_z
 _atom_site_occupancy
  Mo  Mo0  1  -0.00883655  7.30104000  3.68701000  1
  Mo  Mo1  1  1.78342000  1.78187000  3.63733000  1
  Mo  Mo2  1  1.82533000  0.00703166  1.82399000  1
  Mo  Mo3  1  0.00895356  1.82347000  1.80923000  1
  Mo  Mo4  1  3.64285000  0.05688350  -0.07074270  1
  Mo  Mo5  1  5.47015000  1.80419000  3.64111000  1
  Mo  Mo6  1  5.53939000  7.26390000  1.86466000  1
  Mo  Mo7  1  3.61298000  1.83159000  1.81269000  1
  Mo  Mo8  1  7.24545000  3.60643000  3.72753000  1
  Mo  Mo9  1  1.80550000  5.44615000  3.60930000  1
  Mo  Mo10  1  1.82109000  3.72686000  1.71817000  1
  Mo  Mo11  1  -0.04756170  5.44874000  1.89181000  1
  Mo  Mo12  1  3.67522000  3.60643000  3.56447000  1
  Mo  Mo13  1  5.44450000  5.44969000  0.02034680  1
  Mo  Mo14  1  5.45981000  3.58334000  1.83745000  1
  Mo  Mo15  1  3.66500000  5.48638000  1.81841000  1
