# generated using pymatgen
data_Mo
_symmetry_space_group_name_H-M   'P 1'
_cell_length_a   7.27808089
_cell_length_b   7.27808089
_cell_length_c   3.63904047
_cell_angle_alpha   90.00000000
_cell_angle_beta   90.00000000
_cell_angle_gamma   90.00000000
_symmetry_Int_Tables_number   1
_chemical_formula_structural   Mo
_chemical_formula_sum   Mo16
_cell_volume   192.76165285
_cell_formula_units_Z   16
loop_
 _symmetry_equiv_pos_site_id
 _symmetry_equiv_pos_as_xyz
  1  'x, y, z'
loop_
 _atom_site_type_symbol
 _atom_site_label
 _atom_site_symmetry_multiplicity
 _atom_site_fract_x
 _atom_site_fract_y
 _atom_site_fract_z
 _atom_site_occupancy
  Mo  Mo0  1  -0.01172840  7.27620000  -0.00224234  1
  Mo  Mo1  1  1.82593000  1.82714000  0.00603842  1
  Mo  Mo2  1  1.83036000  7.29078000  1.83268000  1
  Mo  Mo3  1  7.28432000  1.80973000  1.82807000  1
  Mo  Mo4  1  3.63073000  7.28239000  3.63317000  1
  Mo  Mo5  1  5.46778000  1.81806000  0.00185929  1
  Mo  Mo6  1  5.45717000  0.00289971  1.81270000  1
  Mo  Mo7  1  3.64861000  1.81073000  1.81870000  1
  Mo  Mo8  1  7.27645000  3.63823000  3.64855000  1
  Mo  Mo9  1  1.80763000  5.47094000  3.62814000  1
  Mo  Mo10  1  1.80622000  3.64028000  1.80981000  1
  Mo  Mo11  1  7.28527000  5.45642000  1.81485000  1
  Mo  Mo12  1  3.65068000  3.63499000  0.00160579  1
  Mo  Mo13  1  5.46066000  5.46447000  3.63568000  1
  Mo  Mo14  1  5.44614000  3.63280000  1.81970000  1
  Mo  Mo15  1  3.63585000  5.44603000  1.82269000  1
