# generated using pymatgen
data_Mo
_symmetry_space_group_name_H-M   'P 1'
_cell_length_a   7.28075024
_cell_length_b   7.28075024
_cell_length_c   3.64037514
_cell_angle_alpha   90.00000000
_cell_angle_beta   90.00000000
_cell_angle_gamma   90.00000000
_symmetry_Int_Tables_number   1
_chemical_formula_structural   Mo
_chemical_formula_sum   Mo16
_cell_volume   192.97382539
_cell_formula_units_Z   16
loop_
 _symmetry_equiv_pos_site_id
 _symmetry_equiv_pos_as_xyz
  1  'x, y, z'
loop_
 _atom_site_type_symbol
 _atom_site_label
 _atom_site_symmetry_multiplicity
 _atom_site_fract_x
 _atom_site_fract_y
 _atom_site_fract_z
 _atom_site_occupancy
  Mo  Mo0  1  -0.05284930  7.29661000  3.62209000  1
  Mo  Mo1  1  1.82522000  1.77742000  3.62869000  1
  Mo  Mo2  1  1.82009000  -0.02526920  1.79768000  1
  Mo  Mo3  1  0.06668710  1.78697000  1.86932000  1
  Mo  Mo4  1  3.61096000  0.02247990  -0.04182310  1
  Mo  Mo5  1  5.47001000  1.84753000  3.62083000  1
  Mo  Mo6  1  5.51988000  7.28387000  1.78135000  1
  Mo  Mo7  1  3.62287000  1.85345000  1.83004000  1
  Mo  Mo8  1  7.27869000  3.63612000  3.72245000  1
  Mo  Mo9  1  1.82994000  5.43276000  3.62605000  1
  Mo  Mo10  1  1.83161000  3.61878000  1.84023000  1
  Mo  Mo11  1  -0.02876360  5.47887000  1.84516000  1
  Mo  Mo12  1  3.66560000  3.61422000  3.66891000  1
  Mo  Mo13  1  5.41173000  5.43901000  -0.00868314  1
  Mo  Mo14  1  5.42883000  3.63090000  1.79734000  1
  Mo  Mo15  1  3.64275000  5.53030000  1.79312000  1
