# generated using pymatgen
data_Mo
_symmetry_space_group_name_H-M   'P 1'
_cell_length_a   7.28075024
_cell_length_b   7.28075024
_cell_length_c   3.64037514
_cell_angle_alpha   90.00000000
_cell_angle_beta   90.00000000
_cell_angle_gamma   90.00000000
_symmetry_Int_Tables_number   1
_chemical_formula_structural   Mo
_chemical_formula_sum   Mo16
_cell_volume   192.97382539
_cell_formula_units_Z   16
loop_
 _symmetry_equiv_pos_site_id
 _symmetry_equiv_pos_as_xyz
  1  'x, y, z'
loop_
 _atom_site_type_symbol
 _atom_site_label
 _atom_site_symmetry_multiplicity
 _atom_site_fract_x
 _atom_site_fract_y
 _atom_site_fract_z
 _atom_site_occupancy
  Mo  Mo0  1  0.05315810  7.28878000  3.68503000  1
  Mo  Mo1  1  1.81585000  1.77417000  3.62910000  1
  Mo  Mo2  1  1.81859000  0.06520880  1.84177000  1
  Mo  Mo3  1  -0.02074510  1.82908000  1.78756000  1
  Mo  Mo4  1  3.64855000  -0.00409782  -0.03426250  1
  Mo  Mo5  1  5.44009000  1.78415000  3.64369000  1
  Mo  Mo6  1  5.42776000  7.23809000  1.82024000  1
  Mo  Mo7  1  3.72947000  1.83668000  1.84173000  1
  Mo  Mo8  1  7.26288000  3.63002000  3.66030000  1
  Mo  Mo9  1  1.80234000  5.50172000  3.64452000  1
  Mo  Mo10  1  1.78740000  3.61990000  1.82134000  1
  Mo  Mo11  1  -0.02013450  5.45980000  1.83141000  1
  Mo  Mo12  1  3.61337000  3.66289000  3.55899000  1
  Mo  Mo13  1  5.52268000  5.48128000  0.01789430  1
  Mo  Mo14  1  5.41774000  3.62576000  1.88549000  1
  Mo  Mo15  1  3.64425000  5.43057000  1.75795000  1
