# generated using pymatgen
data_Mo
_symmetry_space_group_name_H-M   'P 1'
_cell_length_a   7.28075024
_cell_length_b   7.28075024
_cell_length_c   3.64037514
_cell_angle_alpha   90.00000000
_cell_angle_beta   90.00000000
_cell_angle_gamma   90.00000000
_symmetry_Int_Tables_number   1
_chemical_formula_structural   Mo
_chemical_formula_sum   Mo16
_cell_volume   192.97382539
_cell_formula_units_Z   16
loop_
 _symmetry_equiv_pos_site_id
 _symmetry_equiv_pos_as_xyz
  1  'x, y, z'
loop_
 _atom_site_type_symbol
 _atom_site_label
 _atom_site_symmetry_multiplicity
 _atom_site_fract_x
 _atom_site_fract_y
 _atom_site_fract_z
 _atom_site_occupancy
  Mo  Mo0  1  -0.01658400  7.21844000  3.63820000  1
  Mo  Mo1  1  1.81015000  1.79941000  3.62782000  1
  Mo  Mo2  1  1.78915000  0.03899540  1.79118000  1
  Mo  Mo3  1  -0.00900170  1.85021000  1.81982000  1
  Mo  Mo4  1  3.65842000  0.02352630  0.06397780  1
  Mo  Mo5  1  5.48293000  1.84017000  3.62464000  1
  Mo  Mo6  1  5.44009000  7.32415000  1.89337000  1
  Mo  Mo7  1  3.62946000  1.76064000  1.78472000  1
  Mo  Mo8  1  7.29653000  3.61440000  3.56619000  1
  Mo  Mo9  1  1.83493000  5.48386000  3.60978000  1
  Mo  Mo10  1  1.88328000  3.63458000  1.77128000  1
  Mo  Mo11  1  0.01802890  5.45912000  1.82673000  1
  Mo  Mo12  1  3.56939000  3.63469000  3.68889000  1
  Mo  Mo13  1  5.40024000  5.44745000  0.01094640  1
  Mo  Mo14  1  5.49754000  3.64065000  1.78894000  1
  Mo  Mo15  1  3.65870000  5.45370000  1.88627000  1
