# generated using pymatgen
data_Mo
_symmetry_space_group_name_H-M   'P 1'
_cell_length_a   7.28075024
_cell_length_b   7.28075024
_cell_length_c   3.64037514
_cell_angle_alpha   90.00000000
_cell_angle_beta   90.00000000
_cell_angle_gamma   90.00000000
_symmetry_Int_Tables_number   1
_chemical_formula_structural   Mo
_chemical_formula_sum   Mo16
_cell_volume   192.97382539
_cell_formula_units_Z   16
loop_
 _symmetry_equiv_pos_site_id
 _symmetry_equiv_pos_as_xyz
  1  'x, y, z'
loop_
 _atom_site_type_symbol
 _atom_site_label
 _atom_site_symmetry_multiplicity
 _atom_site_fract_x
 _atom_site_fract_y
 _atom_site_fract_z
 _atom_site_occupancy
  Mo  Mo0  1  -0.02035640  7.26722000  3.61170000  1
  Mo  Mo1  1  1.86074000  1.83070000  3.62354000  1
  Mo  Mo2  1  1.80106000  0.01368450  1.80374000  1
  Mo  Mo3  1  0.01687300  1.80948000  1.79461000  1
  Mo  Mo4  1  3.61189000  -0.04649040  0.02599770  1
  Mo  Mo5  1  5.42803000  1.88009000  3.64531000  1
  Mo  Mo6  1  5.44076000  7.32849000  1.81689000  1
  Mo  Mo7  1  3.72876000  1.80472000  1.85261000  1
  Mo  Mo8  1  7.33161000  3.67976000  3.64888000  1
  Mo  Mo9  1  1.85735000  5.45764000  3.60781000  1
  Mo  Mo10  1  1.77995000  3.62462000  1.83065000  1
  Mo  Mo11  1  -0.03161270  5.41274000  1.75471000  1
  Mo  Mo12  1  3.61897000  3.59754000  3.63876000  1
  Mo  Mo13  1  5.44045000  5.46066000  0.03639270  1
  Mo  Mo14  1  5.43817000  3.63899000  1.83915000  1
  Mo  Mo15  1  3.64062000  5.46414000  1.86200000  1
