# generated using pymatgen
data_Mo
_symmetry_space_group_name_H-M   'P 1'
_cell_length_a   7.28075024
_cell_length_b   7.28075024
_cell_length_c   3.64037514
_cell_angle_alpha   90.00000000
_cell_angle_beta   90.00000000
_cell_angle_gamma   90.00000000
_symmetry_Int_Tables_number   1
_chemical_formula_structural   Mo
_chemical_formula_sum   Mo16
_cell_volume   192.97382539
_cell_formula_units_Z   16
loop_
 _symmetry_equiv_pos_site_id
 _symmetry_equiv_pos_as_xyz
  1  'x, y, z'
loop_
 _atom_site_type_symbol
 _atom_site_label
 _atom_site_symmetry_multiplicity
 _atom_site_fract_x
 _atom_site_fract_y
 _atom_site_fract_z
 _atom_site_occupancy
  Mo  Mo0  1  -0.01699270  7.24177000  3.57227000  1
  Mo  Mo1  1  1.86067000  1.82466000  3.65310000  1
  Mo  Mo2  1  1.81134000  -0.02693830  1.83542000  1
  Mo  Mo3  1  -0.00896949  1.81481000  1.85225000  1
  Mo  Mo4  1  3.58909000  -0.02961750  -0.04891540  1
  Mo  Mo5  1  5.50123000  1.82138000  3.64058000  1
  Mo  Mo6  1  5.45577000  7.29939000  1.82155000  1
  Mo  Mo7  1  3.65400000  1.85482000  1.78427000  1
  Mo  Mo8  1  7.31605000  3.64464000  3.70934000  1
  Mo  Mo9  1  1.80675000  5.45742000  3.62934000  1
  Mo  Mo10  1  1.75818000  3.64986000  1.83944000  1
  Mo  Mo11  1  -0.03867920  5.42825000  1.84596000  1
  Mo  Mo12  1  3.64493000  3.65249000  3.67912000  1
  Mo  Mo13  1  5.49354000  5.49182000  0.01111610  1
  Mo  Mo14  1  5.44798000  3.61897000  1.82243000  1
  Mo  Mo15  1  3.66836000  5.48027000  1.74548000  1
