# generated using pymatgen
data_Mo
_symmetry_space_group_name_H-M   'P 1'
_cell_length_a   7.28075024
_cell_length_b   7.28075024
_cell_length_c   3.64037514
_cell_angle_alpha   90.00000000
_cell_angle_beta   90.00000000
_cell_angle_gamma   90.00000000
_symmetry_Int_Tables_number   1
_chemical_formula_structural   Mo
_chemical_formula_sum   Mo16
_cell_volume   192.97382539
_cell_formula_units_Z   16
loop_
 _symmetry_equiv_pos_site_id
 _symmetry_equiv_pos_as_xyz
  1  'x, y, z'
loop_
 _atom_site_type_symbol
 _atom_site_label
 _atom_site_symmetry_multiplicity
 _atom_site_fract_x
 _atom_site_fract_y
 _atom_site_fract_z
 _atom_site_occupancy
  Mo  Mo0  1  -0.04012230  7.29724000  3.65019000  1
  Mo  Mo1  1  1.81800000  1.78359000  3.63149000  1
  Mo  Mo2  1  1.85245000  -0.00897665  1.77118000  1
  Mo  Mo3  1  0.03805430  1.85872000  1.79628000  1
  Mo  Mo4  1  3.66243000  0.02724990  -0.05522070  1
  Mo  Mo5  1  5.45092000  1.79170000  3.63145000  1
  Mo  Mo6  1  5.54555000  7.24302000  1.84259000  1
  Mo  Mo7  1  3.59493000  1.84144000  1.82231000  1
  Mo  Mo8  1  7.25109000  3.61356000  3.67896000  1
  Mo  Mo9  1  1.82695000  5.44103000  3.66719000  1
  Mo  Mo10  1  1.80863000  3.71745000  1.80443000  1
  Mo  Mo11  1  -0.05281730  5.44305000  1.79876000  1
  Mo  Mo12  1  3.62936000  3.60834000  3.67864000  1
  Mo  Mo13  1  5.43170000  5.48888000  -0.02428490  1
  Mo  Mo14  1  5.46749000  3.60775000  1.78097000  1
  Mo  Mo15  1  3.65865000  5.46996000  1.91783000  1
