# generated using pymatgen
data_Mo
_symmetry_space_group_name_H-M   'P 1'
_cell_length_a   7.28075024
_cell_length_b   7.28075024
_cell_length_c   3.64037514
_cell_angle_alpha   90.00000000
_cell_angle_beta   90.00000000
_cell_angle_gamma   90.00000000
_symmetry_Int_Tables_number   1
_chemical_formula_structural   Mo
_chemical_formula_sum   Mo16
_cell_volume   192.97382539
_cell_formula_units_Z   16
loop_
 _symmetry_equiv_pos_site_id
 _symmetry_equiv_pos_as_xyz
  1  'x, y, z'
loop_
 _atom_site_type_symbol
 _atom_site_label
 _atom_site_symmetry_multiplicity
 _atom_site_fract_x
 _atom_site_fract_y
 _atom_site_fract_z
 _atom_site_occupancy
  Mo  Mo0  1  -0.09551310  7.30417000  3.60159000  1
  Mo  Mo1  1  1.82438000  1.81114000  3.68075000  1
  Mo  Mo2  1  1.78020000  0.01265460  1.84419000  1
  Mo  Mo3  1  0.00917109  1.80271000  1.74167000  1
  Mo  Mo4  1  3.63004000  -0.00780862  0.00780524  1
  Mo  Mo5  1  5.46367000  1.86969000  3.59789000  1
  Mo  Mo6  1  5.46292000  7.29557000  1.77466000  1
  Mo  Mo7  1  3.65955000  1.76925000  1.91437000  1
  Mo  Mo8  1  7.28360000  3.61162000  3.66609000  1
  Mo  Mo9  1  1.84167000  5.42415000  3.65305000  1
  Mo  Mo10  1  1.80819000  3.63586000  1.79770000  1
  Mo  Mo11  1  -0.01463550  5.46043000  1.78666000  1
  Mo  Mo12  1  3.65391000  3.64567000  3.67128000  1
  Mo  Mo13  1  5.52325000  5.49203000  -0.01826590  1
  Mo  Mo14  1  5.46360000  3.62046000  1.83785000  1
  Mo  Mo15  1  3.64925000  5.47642000  1.83546000  1
