# generated using pymatgen
data_Mo
_symmetry_space_group_name_H-M   'P 1'
_cell_length_a   7.28075024
_cell_length_b   7.28075024
_cell_length_c   3.64037514
_cell_angle_alpha   90.00000000
_cell_angle_beta   90.00000000
_cell_angle_gamma   90.00000000
_symmetry_Int_Tables_number   1
_chemical_formula_structural   Mo
_chemical_formula_sum   Mo16
_cell_volume   192.97382539
_cell_formula_units_Z   16
loop_
 _symmetry_equiv_pos_site_id
 _symmetry_equiv_pos_as_xyz
  1  'x, y, z'
loop_
 _atom_site_type_symbol
 _atom_site_label
 _atom_site_symmetry_multiplicity
 _atom_site_fract_x
 _atom_site_fract_y
 _atom_site_fract_z
 _atom_site_occupancy
  Mo  Mo0  1  -0.08698920  7.30197000  3.63685000  1
  Mo  Mo1  1  1.76378000  1.75591000  3.58621000  1
  Mo  Mo2  1  1.81943000  -0.06662900  1.82467000  1
  Mo  Mo3  1  0.07096810  1.83390000  1.81302000  1
  Mo  Mo4  1  3.65514000  0.04638810  0.02241850  1
  Mo  Mo5  1  5.46439000  1.82711000  3.61620000  1
  Mo  Mo6  1  5.49367000  7.24804000  1.82322000  1
  Mo  Mo7  1  3.62511000  1.83706000  1.86715000  1
  Mo  Mo8  1  7.30136000  3.71459000  3.63307000  1
  Mo  Mo9  1  1.79572000  5.44388000  3.62012000  1
  Mo  Mo10  1  1.82829000  3.67714000  1.78550000  1
  Mo  Mo11  1  0.00430958  5.42413000  1.80816000  1
  Mo  Mo12  1  3.69600000  3.60965000  3.63377000  1
  Mo  Mo13  1  5.44719000  5.40971000  0.04337860  1
  Mo  Mo14  1  5.43564000  3.65332000  1.80781000  1
  Mo  Mo15  1  3.62925000  5.50783000  1.87119000  1
