# generated using pymatgen
data_Mo
_symmetry_space_group_name_H-M   'P 1'
_cell_length_a   7.27808089
_cell_length_b   7.27808089
_cell_length_c   3.63904047
_cell_angle_alpha   90.00000000
_cell_angle_beta   90.00000000
_cell_angle_gamma   90.00000000
_symmetry_Int_Tables_number   1
_chemical_formula_structural   Mo
_chemical_formula_sum   Mo16
_cell_volume   192.76165285
_cell_formula_units_Z   16
loop_
 _symmetry_equiv_pos_site_id
 _symmetry_equiv_pos_as_xyz
  1  'x, y, z'
loop_
 _atom_site_type_symbol
 _atom_site_label
 _atom_site_symmetry_multiplicity
 _atom_site_fract_x
 _atom_site_fract_y
 _atom_site_fract_z
 _atom_site_occupancy
  Mo  Mo0  1  0.00475354  7.28015000  -0.00160740  1
  Mo  Mo1  1  1.81985000  1.82030000  0.00847323  1
  Mo  Mo2  1  1.82057000  7.27821000  1.81534000  1
  Mo  Mo3  1  7.27864000  1.83093000  1.82006000  1
  Mo  Mo4  1  3.64823000  7.27263000  3.62967000  1
  Mo  Mo5  1  5.46513000  1.80957000  0.01240170  1
  Mo  Mo6  1  5.45523000  -0.00696289  1.82982000  1
  Mo  Mo7  1  3.64020000  1.82780000  1.82413000  1
  Mo  Mo8  1  7.27458000  3.64272000  3.64098000  1
  Mo  Mo9  1  1.81257000  5.45484000  3.63589000  1
  Mo  Mo10  1  1.82302000  3.63288000  1.82615000  1
  Mo  Mo11  1  7.27331000  5.46758000  1.82520000  1
  Mo  Mo12  1  3.64469000  3.65219000  -0.00428442  1
  Mo  Mo13  1  5.45004000  5.44921000  3.62655000  1
  Mo  Mo14  1  5.46304000  3.62986000  1.81098000  1
  Mo  Mo15  1  3.62822000  5.46016000  1.81227000  1
