# generated using pymatgen
data_Mo
_symmetry_space_group_name_H-M   'P 1'
_cell_length_a   7.28075024
_cell_length_b   7.28075024
_cell_length_c   3.64037514
_cell_angle_alpha   90.00000000
_cell_angle_beta   90.00000000
_cell_angle_gamma   90.00000000
_symmetry_Int_Tables_number   1
_chemical_formula_structural   Mo
_chemical_formula_sum   Mo16
_cell_volume   192.97382539
_cell_formula_units_Z   16
loop_
 _symmetry_equiv_pos_site_id
 _symmetry_equiv_pos_as_xyz
  1  'x, y, z'
loop_
 _atom_site_type_symbol
 _atom_site_label
 _atom_site_symmetry_multiplicity
 _atom_site_fract_x
 _atom_site_fract_y
 _atom_site_fract_z
 _atom_site_occupancy
  Mo  Mo0  1  0.00691822  7.29308000  3.60186000  1
  Mo  Mo1  1  1.85152000  1.87929000  3.61904000  1
  Mo  Mo2  1  1.87972000  0.01571640  1.87174000  1
  Mo  Mo3  1  -0.02862700  1.81714000  1.83935000  1
  Mo  Mo4  1  3.61513000  -0.05225420  -0.01564950  1
  Mo  Mo5  1  5.46589000  1.82143000  3.68011000  1
  Mo  Mo6  1  5.44372000  7.25772000  1.89122000  1
  Mo  Mo7  1  3.62423000  1.84501000  1.77097000  1
  Mo  Mo8  1  7.29041000  3.62667000  3.60144000  1
  Mo  Mo9  1  1.79683000  5.48450000  3.65295000  1
  Mo  Mo10  1  1.78249000  3.63203000  1.78156000  1
  Mo  Mo11  1  0.03510860  5.44275000  1.82873000  1
  Mo  Mo12  1  3.64019000  3.63878000  3.66801000  1
  Mo  Mo13  1  5.47866000  5.46993000  0.00357847  1
  Mo  Mo14  1  5.41382000  3.64657000  1.79329000  1
  Mo  Mo15  1  3.64723000  5.40564000  1.80455000  1
