# generated using pymatgen
data_Mo
_symmetry_space_group_name_H-M   'P 1'
_cell_length_a   7.28075024
_cell_length_b   7.28075024
_cell_length_c   3.64037514
_cell_angle_alpha   90.00000000
_cell_angle_beta   90.00000000
_cell_angle_gamma   90.00000000
_symmetry_Int_Tables_number   1
_chemical_formula_structural   Mo
_chemical_formula_sum   Mo16
_cell_volume   192.97382539
_cell_formula_units_Z   16
loop_
 _symmetry_equiv_pos_site_id
 _symmetry_equiv_pos_as_xyz
  1  'x, y, z'
loop_
 _atom_site_type_symbol
 _atom_site_label
 _atom_site_symmetry_multiplicity
 _atom_site_fract_x
 _atom_site_fract_y
 _atom_site_fract_z
 _atom_site_occupancy
  Mo  Mo0  1  -0.05145810  7.32947000  3.66568000  1
  Mo  Mo1  1  1.77720000  1.79155000  3.66084000  1
  Mo  Mo2  1  1.86663000  -0.03159100  1.83151000  1
  Mo  Mo3  1  0.02492390  1.83788000  1.84120000  1
  Mo  Mo4  1  3.66007000  0.04113140  -0.03459430  1
  Mo  Mo5  1  5.46739000  1.83796000  3.62681000  1
  Mo  Mo6  1  5.51252000  7.22222000  1.76852000  1
  Mo  Mo7  1  3.60108000  1.88189000  1.83567000  1
  Mo  Mo8  1  7.28533000  3.66385000  3.69782000  1
  Mo  Mo9  1  1.87297000  5.49411000  3.63952000  1
  Mo  Mo10  1  1.83411000  3.62279000  1.84184000  1
  Mo  Mo11  1  0.00159219  5.43431000  1.79644000  1
  Mo  Mo12  1  3.65170000  3.58445000  3.59520000  1
  Mo  Mo13  1  5.45044000  5.41621000  0.01803530  1
  Mo  Mo14  1  5.37231000  3.61255000  1.81437000  1
  Mo  Mo15  1  3.61646000  5.48522000  1.79389000  1
