# generated using pymatgen
data_Mo
_symmetry_space_group_name_H-M   'P 1'
_cell_length_a   7.28075024
_cell_length_b   7.28075024
_cell_length_c   3.64037514
_cell_angle_alpha   90.00000000
_cell_angle_beta   90.00000000
_cell_angle_gamma   90.00000000
_symmetry_Int_Tables_number   1
_chemical_formula_structural   Mo
_chemical_formula_sum   Mo16
_cell_volume   192.97382539
_cell_formula_units_Z   16
loop_
 _symmetry_equiv_pos_site_id
 _symmetry_equiv_pos_as_xyz
  1  'x, y, z'
loop_
 _atom_site_type_symbol
 _atom_site_label
 _atom_site_symmetry_multiplicity
 _atom_site_fract_x
 _atom_site_fract_y
 _atom_site_fract_z
 _atom_site_occupancy
  Mo  Mo0  1  0.00591082  7.29110000  3.65424000  1
  Mo  Mo1  1  1.81233000  1.82916000  3.64030000  1
  Mo  Mo2  1  1.80792000  0.06220060  1.80854000  1
  Mo  Mo3  1  0.02893270  1.78513000  1.82703000  1
  Mo  Mo4  1  3.60172000  -0.06972640  -0.06217980  1
  Mo  Mo5  1  5.41837000  1.84004000  3.64284000  1
  Mo  Mo6  1  5.46057000  7.31841000  1.75696000  1
  Mo  Mo7  1  3.67447000  1.82421000  1.86367000  1
  Mo  Mo8  1  7.31953000  3.65553000  3.68330000  1
  Mo  Mo9  1  1.88640000  5.47491000  3.63670000  1
  Mo  Mo10  1  1.80340000  3.62880000  1.87929000  1
  Mo  Mo11  1  -0.01678230  5.42535000  1.81717000  1
  Mo  Mo12  1  3.59866000  3.62991000  3.65838000  1
  Mo  Mo13  1  5.44408000  5.45243000  -0.03877530  1
  Mo  Mo14  1  5.41987000  3.64179000  1.83626000  1
  Mo  Mo15  1  3.67788000  5.43475000  1.78902000  1
