# generated using pymatgen
data_Mo
_symmetry_space_group_name_H-M   'P 1'
_cell_length_a   7.28075024
_cell_length_b   7.28075024
_cell_length_c   3.64037514
_cell_angle_alpha   90.00000000
_cell_angle_beta   90.00000000
_cell_angle_gamma   90.00000000
_symmetry_Int_Tables_number   1
_chemical_formula_structural   Mo
_chemical_formula_sum   Mo16
_cell_volume   192.97382539
_cell_formula_units_Z   16
loop_
 _symmetry_equiv_pos_site_id
 _symmetry_equiv_pos_as_xyz
  1  'x, y, z'
loop_
 _atom_site_type_symbol
 _atom_site_label
 _atom_site_symmetry_multiplicity
 _atom_site_fract_x
 _atom_site_fract_y
 _atom_site_fract_z
 _atom_site_occupancy
  Mo  Mo0  1  -0.04641240  7.29955000  3.58731000  1
  Mo  Mo1  1  1.82293000  1.84738000  3.64891000  1
  Mo  Mo2  1  1.81667000  0.00105400  1.82418000  1
  Mo  Mo3  1  -0.03575670  1.76559000  1.84328000  1
  Mo  Mo4  1  3.64029000  -0.02168280  -0.02369240  1
  Mo  Mo5  1  5.47314000  1.82735000  3.66442000  1
  Mo  Mo6  1  5.46239000  7.29953000  1.80006000  1
  Mo  Mo7  1  3.63951000  1.79663000  1.78884000  1
  Mo  Mo8  1  7.31510000  3.61458000  3.64144000  1
  Mo  Mo9  1  1.75834000  5.43414000  3.66146000  1
  Mo  Mo10  1  1.78211000  3.61914000  1.82332000  1
  Mo  Mo11  1  0.06838380  5.45109000  1.83144000  1
  Mo  Mo12  1  3.67306000  3.66662000  3.71745000  1
  Mo  Mo13  1  5.45992000  5.46446000  -0.03218080  1
  Mo  Mo14  1  5.50277000  3.68573000  1.79056000  1
  Mo  Mo15  1  3.61080000  5.47285000  1.82597000  1
