# generated using pymatgen
data_Mo
_symmetry_space_group_name_H-M   'P 1'
_cell_length_a   7.28075024
_cell_length_b   7.28075024
_cell_length_c   3.64037514
_cell_angle_alpha   90.00000000
_cell_angle_beta   90.00000000
_cell_angle_gamma   90.00000000
_symmetry_Int_Tables_number   1
_chemical_formula_structural   Mo
_chemical_formula_sum   Mo16
_cell_volume   192.97382539
_cell_formula_units_Z   16
loop_
 _symmetry_equiv_pos_site_id
 _symmetry_equiv_pos_as_xyz
  1  'x, y, z'
loop_
 _atom_site_type_symbol
 _atom_site_label
 _atom_site_symmetry_multiplicity
 _atom_site_fract_x
 _atom_site_fract_y
 _atom_site_fract_z
 _atom_site_occupancy
  Mo  Mo0  1  -0.00909159  7.27002000  3.61291000  1
  Mo  Mo1  1  1.85583000  1.78820000  3.67234000  1
  Mo  Mo2  1  1.80707000  0.04626960  1.86285000  1
  Mo  Mo3  1  -0.01238390  1.81092000  1.72318000  1
  Mo  Mo4  1  3.56830000  -0.02873490  -0.00308735  1
  Mo  Mo5  1  5.45176000  1.86405000  3.62518000  1
  Mo  Mo6  1  5.39420000  7.24942000  1.79358000  1
  Mo  Mo7  1  3.68836000  1.82681000  1.87972000  1
  Mo  Mo8  1  7.29835000  3.64598000  3.63221000  1
  Mo  Mo9  1  1.85480000  5.45295000  3.67593000  1
  Mo  Mo10  1  1.87240000  3.58549000  1.83432000  1
  Mo  Mo11  1  -0.02583190  5.44775000  1.76890000  1
  Mo  Mo12  1  3.62455000  3.68610000  3.62748000  1
  Mo  Mo13  1  5.54155000  5.48631000  0.01958820  1
  Mo  Mo14  1  5.41455000  3.66794000  1.87153000  1
  Mo  Mo15  1  3.61886000  5.42453000  1.79612000  1
