# generated using pymatgen
data_Mo
_symmetry_space_group_name_H-M   'P 1'
_cell_length_a   7.28075024
_cell_length_b   7.28075024
_cell_length_c   3.64037514
_cell_angle_alpha   90.00000000
_cell_angle_beta   90.00000000
_cell_angle_gamma   90.00000000
_symmetry_Int_Tables_number   1
_chemical_formula_structural   Mo
_chemical_formula_sum   Mo16
_cell_volume   192.97382539
_cell_formula_units_Z   16
loop_
 _symmetry_equiv_pos_site_id
 _symmetry_equiv_pos_as_xyz
  1  'x, y, z'
loop_
 _atom_site_type_symbol
 _atom_site_label
 _atom_site_symmetry_multiplicity
 _atom_site_fract_x
 _atom_site_fract_y
 _atom_site_fract_z
 _atom_site_occupancy
  Mo  Mo0  1  0.01926900  7.29313000  3.70267000  1
  Mo  Mo1  1  1.84124000  1.80969000  3.64816000  1
  Mo  Mo2  1  1.81533000  -0.00027910  1.73179000  1
  Mo  Mo3  1  0.05031210  1.77707000  1.88354000  1
  Mo  Mo4  1  3.66104000  0.02039570  -0.04425920  1
  Mo  Mo5  1  5.37933000  1.83626000  3.59544000  1
  Mo  Mo6  1  5.42935000  7.27102000  1.75668000  1
  Mo  Mo7  1  3.63783000  1.85258000  1.82520000  1
  Mo  Mo8  1  7.23769000  3.59458000  3.69046000  1
  Mo  Mo9  1  1.80583000  5.40555000  3.61041000  1
  Mo  Mo10  1  1.85051000  3.62295000  1.89117000  1
  Mo  Mo11  1  -0.01455050  5.51176000  1.80417000  1
  Mo  Mo12  1  3.67354000  3.67474000  3.61717000  1
  Mo  Mo13  1  5.43071000  5.42905000  -0.02886890  1
  Mo  Mo14  1  5.50877000  3.64767000  1.83744000  1
  Mo  Mo15  1  3.61705000  5.47782000  1.87158000  1
