# generated using pymatgen
data_Mo
_symmetry_space_group_name_H-M   'P 1'
_cell_length_a   7.28075024
_cell_length_b   7.28075024
_cell_length_c   3.64037514
_cell_angle_alpha   90.00000000
_cell_angle_beta   90.00000000
_cell_angle_gamma   90.00000000
_symmetry_Int_Tables_number   1
_chemical_formula_structural   Mo
_chemical_formula_sum   Mo16
_cell_volume   192.97382539
_cell_formula_units_Z   16
loop_
 _symmetry_equiv_pos_site_id
 _symmetry_equiv_pos_as_xyz
  1  'x, y, z'
loop_
 _atom_site_type_symbol
 _atom_site_label
 _atom_site_symmetry_multiplicity
 _atom_site_fract_x
 _atom_site_fract_y
 _atom_site_fract_z
 _atom_site_occupancy
  Mo  Mo0  1  0.04249210  7.33329000  3.61256000  1
  Mo  Mo1  1  1.82602000  1.86197000  3.67118000  1
  Mo  Mo2  1  1.82010000  -0.00688429  1.77194000  1
  Mo  Mo3  1  0.02123050  1.76996000  1.78019000  1
  Mo  Mo4  1  3.68522000  -0.06088910  0.02129900  1
  Mo  Mo5  1  5.46352000  1.82009000  3.61043000  1
  Mo  Mo6  1  5.40353000  7.29970000  1.84158000  1
  Mo  Mo7  1  3.64962000  1.77570000  1.84206000  1
  Mo  Mo8  1  7.22822000  3.61358000  3.63392000  1
  Mo  Mo9  1  1.78978000  5.41976000  3.66753000  1
  Mo  Mo10  1  1.87041000  3.63204000  1.84813000  1
  Mo  Mo11  1  -0.05384190  5.47154000  1.82282000  1
  Mo  Mo12  1  3.63462000  3.64604000  3.62425000  1
  Mo  Mo13  1  5.51777000  5.47204000  -0.00682599  1
  Mo  Mo14  1  5.46616000  3.64084000  1.81553000  1
  Mo  Mo15  1  3.57839000  5.53521000  1.83616000  1
