# generated using pymatgen
data_Mo
_symmetry_space_group_name_H-M   'P 1'
_cell_length_a   7.27808089
_cell_length_b   7.27808089
_cell_length_c   3.63904047
_cell_angle_alpha   90.00000000
_cell_angle_beta   90.00000000
_cell_angle_gamma   90.00000000
_symmetry_Int_Tables_number   1
_chemical_formula_structural   Mo
_chemical_formula_sum   Mo16
_cell_volume   192.76165285
_cell_formula_units_Z   16
loop_
 _symmetry_equiv_pos_site_id
 _symmetry_equiv_pos_as_xyz
  1  'x, y, z'
loop_
 _atom_site_type_symbol
 _atom_site_label
 _atom_site_symmetry_multiplicity
 _atom_site_fract_x
 _atom_site_fract_y
 _atom_site_fract_z
 _atom_site_occupancy
  Mo  Mo0  1  -0.00034900  7.28275000  -0.00066482  1
  Mo  Mo1  1  1.82724000  1.82944000  0.01258590  1
  Mo  Mo2  1  1.81686000  7.28075000  1.82395000  1
  Mo  Mo3  1  7.29291000  1.81279000  1.82892000  1
  Mo  Mo4  1  3.63928000  7.28378000  3.64028000  1
  Mo  Mo5  1  5.46615000  1.81900000  0.00136839  1
  Mo  Mo6  1  5.44821000  -0.00660772  1.81410000  1
  Mo  Mo7  1  3.64082000  1.80548000  1.81830000  1
  Mo  Mo8  1  7.27273000  3.63655000  3.64894000  1
  Mo  Mo9  1  1.81051000  5.46739000  3.63033000  1
  Mo  Mo10  1  1.82786000  3.64475000  1.81007000  1
  Mo  Mo11  1  7.27494000  5.45166000  1.81770000  1
  Mo  Mo12  1  3.62969000  3.63360000  -0.00485850  1
  Mo  Mo13  1  5.46488000  5.46206000  3.63396000  1
  Mo  Mo14  1  5.45258000  3.64470000  1.82105000  1
  Mo  Mo15  1  3.63776000  5.45398000  1.81599000  1
