# generated using pymatgen
data_Mo
_symmetry_space_group_name_H-M   'P 1'
_cell_length_a   7.28075024
_cell_length_b   7.28075024
_cell_length_c   3.64037514
_cell_angle_alpha   90.00000000
_cell_angle_beta   90.00000000
_cell_angle_gamma   90.00000000
_symmetry_Int_Tables_number   1
_chemical_formula_structural   Mo
_chemical_formula_sum   Mo16
_cell_volume   192.97382539
_cell_formula_units_Z   16
loop_
 _symmetry_equiv_pos_site_id
 _symmetry_equiv_pos_as_xyz
  1  'x, y, z'
loop_
 _atom_site_type_symbol
 _atom_site_label
 _atom_site_symmetry_multiplicity
 _atom_site_fract_x
 _atom_site_fract_y
 _atom_site_fract_z
 _atom_site_occupancy
  Mo  Mo0  1  0.02260630  7.28324000  3.67745000  1
  Mo  Mo1  1  1.80800000  1.85354000  3.64035000  1
  Mo  Mo2  1  1.79916000  0.05095680  1.85843000  1
  Mo  Mo3  1  0.03270090  1.79423000  1.78767000  1
  Mo  Mo4  1  3.64434000  -0.03350350  -0.04468170  1
  Mo  Mo5  1  5.47899000  1.86299000  3.63145000  1
  Mo  Mo6  1  5.45659000  7.23140000  1.84537000  1
  Mo  Mo7  1  3.69013000  1.78369000  1.83907000  1
  Mo  Mo8  1  7.28727000  3.62514000  3.67782000  1
  Mo  Mo9  1  1.81702000  5.45699000  3.63075000  1
  Mo  Mo10  1  1.77554000  3.63550000  1.78287000  1
  Mo  Mo11  1  0.00451136  5.46449000  1.85066000  1
  Mo  Mo12  1  3.60112000  3.67661000  3.55948000  1
  Mo  Mo13  1  5.52174000  5.45386000  0.02861560  1
  Mo  Mo14  1  5.37239000  3.62438000  1.86970000  1
  Mo  Mo15  1  3.63114000  5.46050000  1.75774000  1
