# generated using pymatgen
data_Mo
_symmetry_space_group_name_H-M   'P 1'
_cell_length_a   7.28075024
_cell_length_b   7.28075024
_cell_length_c   3.64037514
_cell_angle_alpha   90.00000000
_cell_angle_beta   90.00000000
_cell_angle_gamma   90.00000000
_symmetry_Int_Tables_number   1
_chemical_formula_structural   Mo
_chemical_formula_sum   Mo16
_cell_volume   192.97382539
_cell_formula_units_Z   16
loop_
 _symmetry_equiv_pos_site_id
 _symmetry_equiv_pos_as_xyz
  1  'x, y, z'
loop_
 _atom_site_type_symbol
 _atom_site_label
 _atom_site_symmetry_multiplicity
 _atom_site_fract_x
 _atom_site_fract_y
 _atom_site_fract_z
 _atom_site_occupancy
  Mo  Mo0  1  -0.08026670  7.32325000  3.66551000  1
  Mo  Mo1  1  1.73202000  1.79096000  3.58515000  1
  Mo  Mo2  1  1.82524000  -0.04652490  1.82552000  1
  Mo  Mo3  1  0.04794740  1.82591000  1.80813000  1
  Mo  Mo4  1  3.65933000  0.00505652  0.04309550  1
  Mo  Mo5  1  5.46868000  1.80030000  3.63061000  1
  Mo  Mo6  1  5.53446000  7.22317000  1.84575000  1
  Mo  Mo7  1  3.60012000  1.82930000  1.86722000  1
  Mo  Mo8  1  7.27990000  3.68286000  3.62057000  1
  Mo  Mo9  1  1.83523000  5.46657000  3.63867000  1
  Mo  Mo10  1  1.81856000  3.68375000  1.77062000  1
  Mo  Mo11  1  0.01920920  5.47305000  1.80972000  1
  Mo  Mo12  1  3.66298000  3.61744000  3.64473000  1
  Mo  Mo13  1  5.45361000  5.41326000  0.02444500  1
  Mo  Mo14  1  5.43563000  3.62272000  1.75583000  1
  Mo  Mo15  1  3.65059000  5.51295000  1.85718000  1
