# generated using pymatgen
data_Mo
_symmetry_space_group_name_H-M   'P 1'
_cell_length_a   7.28075024
_cell_length_b   7.28075024
_cell_length_c   3.64037514
_cell_angle_alpha   90.00000000
_cell_angle_beta   90.00000000
_cell_angle_gamma   90.00000000
_symmetry_Int_Tables_number   1
_chemical_formula_structural   Mo
_chemical_formula_sum   Mo16
_cell_volume   192.97382539
_cell_formula_units_Z   16
loop_
 _symmetry_equiv_pos_site_id
 _symmetry_equiv_pos_as_xyz
  1  'x, y, z'
loop_
 _atom_site_type_symbol
 _atom_site_label
 _atom_site_symmetry_multiplicity
 _atom_site_fract_x
 _atom_site_fract_y
 _atom_site_fract_z
 _atom_site_occupancy
  Mo  Mo0  1  0.00365092  7.26418000  3.64169000  1
  Mo  Mo1  1  1.83176000  1.83424000  3.64597000  1
  Mo  Mo2  1  1.83710000  0.02828310  1.78593000  1
  Mo  Mo3  1  -0.01771830  1.81950000  1.83996000  1
  Mo  Mo4  1  3.61156000  -0.03196340  -0.07697870  1
  Mo  Mo5  1  5.46082000  1.86078000  3.65075000  1
  Mo  Mo6  1  5.40585000  7.25933000  1.84924000  1
  Mo  Mo7  1  3.69546000  1.79040000  1.78462000  1
  Mo  Mo8  1  7.29826000  3.64251000  3.66456000  1
  Mo  Mo9  1  1.84812000  5.44762000  3.67104000  1
  Mo  Mo10  1  1.80642000  3.63267000  1.88901000  1
  Mo  Mo11  1  0.02189990  5.43496000  1.73938000  1
  Mo  Mo12  1  3.58956000  3.68154000  3.62023000  1
  Mo  Mo13  1  5.54417000  5.47268000  0.00717015  1
  Mo  Mo14  1  5.40832000  3.62418000  1.84833000  1
  Mo  Mo15  1  3.59801000  5.46311000  1.83185000  1
