# generated using pymatgen
data_Mo
_symmetry_space_group_name_H-M   'P 1'
_cell_length_a   7.28075024
_cell_length_b   7.28075024
_cell_length_c   3.64037514
_cell_angle_alpha   90.00000000
_cell_angle_beta   90.00000000
_cell_angle_gamma   90.00000000
_symmetry_Int_Tables_number   1
_chemical_formula_structural   Mo
_chemical_formula_sum   Mo16
_cell_volume   192.97382539
_cell_formula_units_Z   16
loop_
 _symmetry_equiv_pos_site_id
 _symmetry_equiv_pos_as_xyz
  1  'x, y, z'
loop_
 _atom_site_type_symbol
 _atom_site_label
 _atom_site_symmetry_multiplicity
 _atom_site_fract_x
 _atom_site_fract_y
 _atom_site_fract_z
 _atom_site_occupancy
  Mo  Mo0  1  0.05760550  7.22950000  3.64934000  1
  Mo  Mo1  1  1.82525000  1.78016000  3.71989000  1
  Mo  Mo2  1  1.77086000  0.01340220  1.79032000  1
  Mo  Mo3  1  -0.00004333  1.81078000  1.85998000  1
  Mo  Mo4  1  3.66180000  0.03754830  -0.08583740  1
  Mo  Mo5  1  5.49331000  1.82630000  3.62732000  1
  Mo  Mo6  1  5.43683000  7.34094000  1.80431000  1
  Mo  Mo7  1  3.63886000  1.77149000  1.76610000  1
  Mo  Mo8  1  7.28773000  3.64024000  3.64129000  1
  Mo  Mo9  1  1.80895000  5.50721000  3.62820000  1
  Mo  Mo10  1  1.84404000  3.63337000  1.90976000  1
  Mo  Mo11  1  -0.05423110  5.42872000  1.80471000  1
  Mo  Mo12  1  3.61136000  3.64356000  3.63600000  1
  Mo  Mo13  1  5.44867000  5.48634000  -0.01711560  1
  Mo  Mo14  1  5.44378000  3.64685000  1.86084000  1
  Mo  Mo15  1  3.66848000  5.42758000  1.79763000  1
