# generated using pymatgen
data_Mo
_symmetry_space_group_name_H-M   'P 1'
_cell_length_a   7.28075024
_cell_length_b   7.28075024
_cell_length_c   3.64037514
_cell_angle_alpha   90.00000000
_cell_angle_beta   90.00000000
_cell_angle_gamma   90.00000000
_symmetry_Int_Tables_number   1
_chemical_formula_structural   Mo
_chemical_formula_sum   Mo16
_cell_volume   192.97382539
_cell_formula_units_Z   16
loop_
 _symmetry_equiv_pos_site_id
 _symmetry_equiv_pos_as_xyz
  1  'x, y, z'
loop_
 _atom_site_type_symbol
 _atom_site_label
 _atom_site_symmetry_multiplicity
 _atom_site_fract_x
 _atom_site_fract_y
 _atom_site_fract_z
 _atom_site_occupancy
  Mo  Mo0  1  -0.00267375  7.30756000  3.61143000  1
  Mo  Mo1  1  1.84601000  1.82971000  3.61167000  1
  Mo  Mo2  1  1.82311000  0.01581730  1.86218000  1
  Mo  Mo3  1  0.02355250  1.82156000  1.80562000  1
  Mo  Mo4  1  3.59320000  -0.01739300  0.05244700  1
  Mo  Mo5  1  5.42472000  1.82577000  3.62119000  1
  Mo  Mo6  1  5.48330000  7.29343000  1.87669000  1
  Mo  Mo7  1  3.60084000  1.82027000  1.84145000  1
  Mo  Mo8  1  7.28938000  3.68295000  3.61100000  1
  Mo  Mo9  1  1.85957000  5.42920000  3.62564000  1
  Mo  Mo10  1  1.78678000  3.66469000  1.77370000  1
  Mo  Mo11  1  -0.01421840  5.46721000  1.82555000  1
  Mo  Mo12  1  3.65193000  3.62237000  3.66829000  1
  Mo  Mo13  1  5.45986000  5.40269000  0.02078050  1
  Mo  Mo14  1  5.42225000  3.60447000  1.76042000  1
  Mo  Mo15  1  3.69563000  5.45370000  1.82470000  1
