# generated using pymatgen
data_Mo
_symmetry_space_group_name_H-M   'P 1'
_cell_length_a   7.28075024
_cell_length_b   7.28075024
_cell_length_c   3.64037514
_cell_angle_alpha   90.00000000
_cell_angle_beta   90.00000000
_cell_angle_gamma   90.00000000
_symmetry_Int_Tables_number   1
_chemical_formula_structural   Mo
_chemical_formula_sum   Mo16
_cell_volume   192.97382539
_cell_formula_units_Z   16
loop_
 _symmetry_equiv_pos_site_id
 _symmetry_equiv_pos_as_xyz
  1  'x, y, z'
loop_
 _atom_site_type_symbol
 _atom_site_label
 _atom_site_symmetry_multiplicity
 _atom_site_fract_x
 _atom_site_fract_y
 _atom_site_fract_z
 _atom_site_occupancy
  Mo  Mo0  1  0.04114010  7.21820000  3.60312000  1
  Mo  Mo1  1  1.78921000  1.82346000  3.65334000  1
  Mo  Mo2  1  1.76709000  0.01544910  1.85473000  1
  Mo  Mo3  1  -0.04992070  1.84111000  1.78505000  1
  Mo  Mo4  1  3.68539000  -0.01010580  0.03745720  1
  Mo  Mo5  1  5.49873000  1.80108000  3.67415000  1
  Mo  Mo6  1  5.44272000  7.33121000  1.83333000  1
  Mo  Mo7  1  3.63367000  1.73803000  1.81600000  1
  Mo  Mo8  1  7.30955000  3.65876000  3.61868000  1
  Mo  Mo9  1  1.84698000  5.51275000  3.66402000  1
  Mo  Mo10  1  1.80884000  3.68299000  1.82061000  1
  Mo  Mo11  1  -0.02285670  5.43928000  1.83685000  1
  Mo  Mo12  1  3.57807000  3.64543000  3.58394000  1
  Mo  Mo13  1  5.46685000  5.47769000  -0.04042510  1
  Mo  Mo14  1  5.46277000  3.61534000  1.86408000  1
  Mo  Mo15  1  3.68502000  5.43332000  1.78781000  1
