# generated using pymatgen
data_Mo
_symmetry_space_group_name_H-M   'P 1'
_cell_length_a   7.28075024
_cell_length_b   7.28075024
_cell_length_c   3.64037514
_cell_angle_alpha   90.00000000
_cell_angle_beta   90.00000000
_cell_angle_gamma   90.00000000
_symmetry_Int_Tables_number   1
_chemical_formula_structural   Mo
_chemical_formula_sum   Mo16
_cell_volume   192.97382539
_cell_formula_units_Z   16
loop_
 _symmetry_equiv_pos_site_id
 _symmetry_equiv_pos_as_xyz
  1  'x, y, z'
loop_
 _atom_site_type_symbol
 _atom_site_label
 _atom_site_symmetry_multiplicity
 _atom_site_fract_x
 _atom_site_fract_y
 _atom_site_fract_z
 _atom_site_occupancy
  Mo  Mo0  1  -0.02684870  7.27464000  3.70057000  1
  Mo  Mo1  1  1.84806000  1.80163000  3.62123000  1
  Mo  Mo2  1  1.83805000  -0.00171951  1.82922000  1
  Mo  Mo3  1  0.06828920  1.84762000  1.81457000  1
  Mo  Mo4  1  3.64643000  0.00370270  -0.04019910  1
  Mo  Mo5  1  5.40784000  1.81429000  3.61579000  1
  Mo  Mo6  1  5.49148000  7.26053000  1.84607000  1
  Mo  Mo7  1  3.63651000  1.81579000  1.84271000  1
  Mo  Mo8  1  7.26907000  3.62952000  3.71851000  1
  Mo  Mo9  1  1.82912000  5.46200000  3.60542000  1
  Mo  Mo10  1  1.78597000  3.71486000  1.71219000  1
  Mo  Mo11  1  0.02890360  5.41808000  1.89725000  1
  Mo  Mo12  1  3.63060000  3.64475000  3.57671000  1
  Mo  Mo13  1  5.43704000  5.47306000  0.01027610  1
  Mo  Mo14  1  5.42811000  3.59739000  1.83118000  1
  Mo  Mo15  1  3.62462000  5.46787000  1.81124000  1
