# generated using pymatgen
data_Mo
_symmetry_space_group_name_H-M   'P 1'
_cell_length_a   7.27808089
_cell_length_b   7.27808089
_cell_length_c   3.63904047
_cell_angle_alpha   90.00000000
_cell_angle_beta   90.00000000
_cell_angle_gamma   90.00000000
_symmetry_Int_Tables_number   1
_chemical_formula_structural   Mo
_chemical_formula_sum   Mo16
_cell_volume   192.76165285
_cell_formula_units_Z   16
loop_
 _symmetry_equiv_pos_site_id
 _symmetry_equiv_pos_as_xyz
  1  'x, y, z'
loop_
 _atom_site_type_symbol
 _atom_site_label
 _atom_site_symmetry_multiplicity
 _atom_site_fract_x
 _atom_site_fract_y
 _atom_site_fract_z
 _atom_site_occupancy
  Mo  Mo0  1  0.00065346  7.28605000  -0.01142310  1
  Mo  Mo1  1  1.81611000  1.82134000  0.00155372  1
  Mo  Mo2  1  1.83277000  7.27929000  1.82443000  1
  Mo  Mo3  1  7.27642000  1.81470000  1.82501000  1
  Mo  Mo4  1  3.64006000  7.28171000  3.63930000  1
  Mo  Mo5  1  5.46234000  1.81231000  -0.00714281  1
  Mo  Mo6  1  5.46069000  -0.00558411  1.80799000  1
  Mo  Mo7  1  3.64321000  1.82467000  1.82641000  1
  Mo  Mo8  1  7.27757000  3.64608000  3.63672000  1
  Mo  Mo9  1  1.81488000  5.46134000  3.63981000  1
  Mo  Mo10  1  1.81185000  3.63690000  1.81654000  1
  Mo  Mo11  1  7.28292000  5.46403000  1.81252000  1
  Mo  Mo12  1  3.64814000  3.64283000  0.00180184  1
  Mo  Mo13  1  5.45874000  5.45418000  3.64804000  1
  Mo  Mo14  1  5.45100000  3.62101000  1.82792000  1
  Mo  Mo15  1  3.62473000  5.46120000  1.82252000  1
