# generated using pymatgen
data_Mo
_symmetry_space_group_name_H-M   'P 1'
_cell_length_a   7.28075024
_cell_length_b   7.28075024
_cell_length_c   3.64037514
_cell_angle_alpha   90.00000000
_cell_angle_beta   90.00000000
_cell_angle_gamma   90.00000000
_symmetry_Int_Tables_number   1
_chemical_formula_structural   Mo
_chemical_formula_sum   Mo16
_cell_volume   192.97382539
_cell_formula_units_Z   16
loop_
 _symmetry_equiv_pos_site_id
 _symmetry_equiv_pos_as_xyz
  1  'x, y, z'
loop_
 _atom_site_type_symbol
 _atom_site_label
 _atom_site_symmetry_multiplicity
 _atom_site_fract_x
 _atom_site_fract_y
 _atom_site_fract_z
 _atom_site_occupancy
  Mo  Mo0  1  0.00275871  7.24577000  3.69624000  1
  Mo  Mo1  1  1.81737000  1.81597000  3.64108000  1
  Mo  Mo2  1  1.82890000  0.04351240  1.84438000  1
  Mo  Mo3  1  -0.00834915  1.79505000  1.85473000  1
  Mo  Mo4  1  3.59541000  -0.03539420  -0.00257473  1
  Mo  Mo5  1  5.40175000  1.81114000  3.60236000  1
  Mo  Mo6  1  5.47450000  7.33098000  1.80467000  1
  Mo  Mo7  1  3.67202000  1.82904000  1.79534000  1
  Mo  Mo8  1  7.29414000  3.66241000  3.67380000  1
  Mo  Mo9  1  1.84674000  5.50539000  3.63777000  1
  Mo  Mo10  1  1.80479000  3.66342000  1.82818000  1
  Mo  Mo11  1  0.00360592  5.39705000  1.82078000  1
  Mo  Mo12  1  3.57807000  3.62232000  3.58312000  1
  Mo  Mo13  1  5.50475000  5.46085000  -0.00447525  1
  Mo  Mo14  1  5.47575000  3.61160000  1.78385000  1
  Mo  Mo15  1  3.65103000  5.46489000  1.83349000  1
