# generated using pymatgen
data_Mo
_symmetry_space_group_name_H-M   'P 1'
_cell_length_a   7.28075024
_cell_length_b   7.28075024
_cell_length_c   3.64037514
_cell_angle_alpha   90.00000000
_cell_angle_beta   90.00000000
_cell_angle_gamma   90.00000000
_symmetry_Int_Tables_number   1
_chemical_formula_structural   Mo
_chemical_formula_sum   Mo16
_cell_volume   192.97382539
_cell_formula_units_Z   16
loop_
 _symmetry_equiv_pos_site_id
 _symmetry_equiv_pos_as_xyz
  1  'x, y, z'
loop_
 _atom_site_type_symbol
 _atom_site_label
 _atom_site_symmetry_multiplicity
 _atom_site_fract_x
 _atom_site_fract_y
 _atom_site_fract_z
 _atom_site_occupancy
  Mo  Mo0  1  -0.08898730  7.32704000  3.66088000  1
  Mo  Mo1  1  1.77746000  1.76912000  3.62180000  1
  Mo  Mo2  1  1.85760000  -0.06780660  1.79729000  1
  Mo  Mo3  1  0.05199510  1.84773000  1.85822000  1
  Mo  Mo4  1  3.67372000  0.04553620  -0.07283270  1
  Mo  Mo5  1  5.48698000  1.83494000  3.64310000  1
  Mo  Mo6  1  5.49053000  7.25769000  1.77089000  1
  Mo  Mo7  1  3.63653000  1.85546000  1.85261000  1
  Mo  Mo8  1  7.30782000  3.68396000  3.69400000  1
  Mo  Mo9  1  1.82674000  5.44168000  3.65211000  1
  Mo  Mo10  1  1.82398000  3.64339000  1.86886000  1
  Mo  Mo11  1  -0.00491985  5.40092000  1.80830000  1
  Mo  Mo12  1  3.66128000  3.61032000  3.64078000  1
  Mo  Mo13  1  5.42675000  5.43297000  -0.02295540  1
  Mo  Mo14  1  5.41456000  3.63941000  1.81597000  1
  Mo  Mo15  1  3.60122000  5.50163000  1.80372000  1
