# generated using pymatgen
data_Mo
_symmetry_space_group_name_H-M   'P 1'
_cell_length_a   7.28075024
_cell_length_b   7.28075024
_cell_length_c   3.64037514
_cell_angle_alpha   90.00000000
_cell_angle_beta   90.00000000
_cell_angle_gamma   90.00000000
_symmetry_Int_Tables_number   1
_chemical_formula_structural   Mo
_chemical_formula_sum   Mo16
_cell_volume   192.97382539
_cell_formula_units_Z   16
loop_
 _symmetry_equiv_pos_site_id
 _symmetry_equiv_pos_as_xyz
  1  'x, y, z'
loop_
 _atom_site_type_symbol
 _atom_site_label
 _atom_site_symmetry_multiplicity
 _atom_site_fract_x
 _atom_site_fract_y
 _atom_site_fract_z
 _atom_site_occupancy
  Mo  Mo0  1  -0.05605300  7.30862000  3.68594000  1
  Mo  Mo1  1  1.79661000  1.80239000  3.58853000  1
  Mo  Mo2  1  1.85653000  -0.03107750  1.84190000  1
  Mo  Mo3  1  0.00434219  1.84384000  1.77252000  1
  Mo  Mo4  1  3.64242000  0.05144770  0.01681390  1
  Mo  Mo5  1  5.44984000  1.82571000  3.66369000  1
  Mo  Mo6  1  5.45990000  7.24666000  1.85863000  1
  Mo  Mo7  1  3.62120000  1.83939000  1.84559000  1
  Mo  Mo8  1  7.33864000  3.68392000  3.59076000  1
  Mo  Mo9  1  1.86790000  5.48546000  3.66710000  1
  Mo  Mo10  1  1.80956000  3.63139000  1.79362000  1
  Mo  Mo11  1  0.01178410  5.41432000  1.77356000  1
  Mo  Mo12  1  3.65206000  3.56656000  3.60495000  1
  Mo  Mo13  1  5.47277000  5.43486000  0.04913900  1
  Mo  Mo14  1  5.41442000  3.59832000  1.79355000  1
  Mo  Mo15  1  3.60133000  5.52220000  1.84646000  1
