# generated using pymatgen
data_Mo
_symmetry_space_group_name_H-M   'P 1'
_cell_length_a   7.28075024
_cell_length_b   7.28075024
_cell_length_c   3.64037514
_cell_angle_alpha   90.00000000
_cell_angle_beta   90.00000000
_cell_angle_gamma   90.00000000
_symmetry_Int_Tables_number   1
_chemical_formula_structural   Mo
_chemical_formula_sum   Mo16
_cell_volume   192.97382539
_cell_formula_units_Z   16
loop_
 _symmetry_equiv_pos_site_id
 _symmetry_equiv_pos_as_xyz
  1  'x, y, z'
loop_
 _atom_site_type_symbol
 _atom_site_label
 _atom_site_symmetry_multiplicity
 _atom_site_fract_x
 _atom_site_fract_y
 _atom_site_fract_z
 _atom_site_occupancy
  Mo  Mo0  1  0.00392133  7.29309000  3.60404000  1
  Mo  Mo1  1  1.85595000  1.80959000  3.62412000  1
  Mo  Mo2  1  1.81571000  -0.02114990  1.79274000  1
  Mo  Mo3  1  -0.02719160  1.83391000  1.85074000  1
  Mo  Mo4  1  3.64762000  -0.00110966  0.01323690  1
  Mo  Mo5  1  5.37847000  1.81738000  3.64750000  1
  Mo  Mo6  1  5.47231000  7.25694000  1.76047000  1
  Mo  Mo7  1  3.61025000  1.84247000  1.82705000  1
  Mo  Mo8  1  7.29468000  3.61838000  3.63893000  1
  Mo  Mo9  1  1.77913000  5.45297000  3.63573000  1
  Mo  Mo10  1  1.85209000  3.61659000  1.83133000  1
  Mo  Mo11  1  0.07561940  5.45032000  1.85445000  1
  Mo  Mo12  1  3.68222000  3.63696000  3.72386000  1
  Mo  Mo13  1  5.39789000  5.42898000  -0.05659300  1
  Mo  Mo14  1  5.49413000  3.71332000  1.80164000  1
  Mo  Mo15  1  3.61045000  5.47536000  1.84351000  1
