# generated using pymatgen
data_Mo
_symmetry_space_group_name_H-M   'P 1'
_cell_length_a   7.28075024
_cell_length_b   7.28075024
_cell_length_c   3.64037514
_cell_angle_alpha   90.00000000
_cell_angle_beta   90.00000000
_cell_angle_gamma   90.00000000
_symmetry_Int_Tables_number   1
_chemical_formula_structural   Mo
_chemical_formula_sum   Mo16
_cell_volume   192.97382539
_cell_formula_units_Z   16
loop_
 _symmetry_equiv_pos_site_id
 _symmetry_equiv_pos_as_xyz
  1  'x, y, z'
loop_
 _atom_site_type_symbol
 _atom_site_label
 _atom_site_symmetry_multiplicity
 _atom_site_fract_x
 _atom_site_fract_y
 _atom_site_fract_z
 _atom_site_occupancy
  Mo  Mo0  1  0.02338970  7.30332000  3.64413000  1
  Mo  Mo1  1  1.76912000  1.79894000  3.65866000  1
  Mo  Mo2  1  1.83800000  0.00029781  1.79489000  1
  Mo  Mo3  1  -0.01121550  1.81723000  1.82082000  1
  Mo  Mo4  1  3.66162000  -0.04209420  -0.03626500  1
  Mo  Mo5  1  5.38222000  1.77424000  3.63511000  1
  Mo  Mo6  1  5.43176000  7.29538000  1.79141000  1
  Mo  Mo7  1  3.65847000  1.87235000  1.86345000  1
  Mo  Mo8  1  7.27248000  3.64134000  3.68167000  1
  Mo  Mo9  1  1.78184000  5.48344000  3.63580000  1
  Mo  Mo10  1  1.84057000  3.65470000  1.85177000  1
  Mo  Mo11  1  -0.00321029  5.45517000  1.83627000  1
  Mo  Mo12  1  3.65135000  3.62914000  3.64363000  1
  Mo  Mo13  1  5.50670000  5.46101000  -0.04261250  1
  Mo  Mo14  1  5.48488000  3.63784000  1.83077000  1
  Mo  Mo15  1  3.65528000  5.44169000  1.78325000  1
