# generated using pymatgen
data_Mo
_symmetry_space_group_name_H-M   'P 1'
_cell_length_a   7.28075024
_cell_length_b   7.28075024
_cell_length_c   3.64037514
_cell_angle_alpha   90.00000000
_cell_angle_beta   90.00000000
_cell_angle_gamma   90.00000000
_symmetry_Int_Tables_number   1
_chemical_formula_structural   Mo
_chemical_formula_sum   Mo16
_cell_volume   192.97382539
_cell_formula_units_Z   16
loop_
 _symmetry_equiv_pos_site_id
 _symmetry_equiv_pos_as_xyz
  1  'x, y, z'
loop_
 _atom_site_type_symbol
 _atom_site_label
 _atom_site_symmetry_multiplicity
 _atom_site_fract_x
 _atom_site_fract_y
 _atom_site_fract_z
 _atom_site_occupancy
  Mo  Mo0  1  0.06631490  7.32977000  3.63794000  1
  Mo  Mo1  1  1.75214000  1.86293000  3.67890000  1
  Mo  Mo2  1  1.82030000  -0.01134960  1.77311000  1
  Mo  Mo3  1  -0.00007806  1.79279000  1.81132000  1
  Mo  Mo4  1  3.69744000  -0.03867310  -0.01074160  1
  Mo  Mo5  1  5.41428000  1.79209000  3.64511000  1
  Mo  Mo6  1  5.39497000  7.28790000  1.85035000  1
  Mo  Mo7  1  3.60992000  1.82086000  1.83764000  1
  Mo  Mo8  1  7.27003000  3.63531000  3.65385000  1
  Mo  Mo9  1  1.75437000  5.40861000  3.64563000  1
  Mo  Mo10  1  1.82298000  3.64731000  1.83599000  1
  Mo  Mo11  1  -0.00137193  5.47241000  1.82461000  1
  Mo  Mo12  1  3.66375000  3.64879000  3.60172000  1
  Mo  Mo13  1  5.55524000  5.43407000  -0.01479650  1
  Mo  Mo14  1  5.51396000  3.62637000  1.83693000  1
  Mo  Mo15  1  3.60899000  5.51480000  1.78518000  1
