# generated using pymatgen
data_Mo
_symmetry_space_group_name_H-M   'P 1'
_cell_length_a   7.28075024
_cell_length_b   7.28075024
_cell_length_c   3.64037514
_cell_angle_alpha   90.00000000
_cell_angle_beta   90.00000000
_cell_angle_gamma   90.00000000
_symmetry_Int_Tables_number   1
_chemical_formula_structural   Mo
_chemical_formula_sum   Mo16
_cell_volume   192.97382539
_cell_formula_units_Z   16
loop_
 _symmetry_equiv_pos_site_id
 _symmetry_equiv_pos_as_xyz
  1  'x, y, z'
loop_
 _atom_site_type_symbol
 _atom_site_label
 _atom_site_symmetry_multiplicity
 _atom_site_fract_x
 _atom_site_fract_y
 _atom_site_fract_z
 _atom_site_occupancy
  Mo  Mo0  1  0.01378460  7.28134000  3.68777000  1
  Mo  Mo1  1  1.78959000  1.81862000  3.61602000  1
  Mo  Mo2  1  1.80777000  -0.01659340  1.76466000  1
  Mo  Mo3  1  0.04329630  1.78145000  1.78688000  1
  Mo  Mo4  1  3.67058000  0.02640080  0.01068550  1
  Mo  Mo5  1  5.42332000  1.81210000  3.65837000  1
  Mo  Mo6  1  5.47990000  7.26300000  1.76181000  1
  Mo  Mo7  1  3.60069000  1.81902000  1.86232000  1
  Mo  Mo8  1  7.22135000  3.62606000  3.67658000  1
  Mo  Mo9  1  1.77356000  5.44921000  3.64692000  1
  Mo  Mo10  1  1.84459000  3.66834000  1.81470000  1
  Mo  Mo11  1  -0.01744550  5.49214000  1.84826000  1
  Mo  Mo12  1  3.66294000  3.66928000  3.58074000  1
  Mo  Mo13  1  5.46620000  5.42697000  -0.01837990  1
  Mo  Mo14  1  5.52951000  3.64945000  1.87230000  1
  Mo  Mo15  1  3.63362000  5.45721000  1.82312000  1
