# generated using pymatgen
data_Mo
_symmetry_space_group_name_H-M   'P 1'
_cell_length_a   7.28075024
_cell_length_b   7.28075024
_cell_length_c   3.64037514
_cell_angle_alpha   90.00000000
_cell_angle_beta   90.00000000
_cell_angle_gamma   90.00000000
_symmetry_Int_Tables_number   1
_chemical_formula_structural   Mo
_chemical_formula_sum   Mo16
_cell_volume   192.97382539
_cell_formula_units_Z   16
loop_
 _symmetry_equiv_pos_site_id
 _symmetry_equiv_pos_as_xyz
  1  'x, y, z'
loop_
 _atom_site_type_symbol
 _atom_site_label
 _atom_site_symmetry_multiplicity
 _atom_site_fract_x
 _atom_site_fract_y
 _atom_site_fract_z
 _atom_site_occupancy
  Mo  Mo0  1  -0.03868290  7.25166000  3.70235000  1
  Mo  Mo1  1  1.82854000  1.83057000  3.58939000  1
  Mo  Mo2  1  1.77703000  0.01122540  1.84598000  1
  Mo  Mo3  1  -0.00439117  1.77892000  1.76271000  1
  Mo  Mo4  1  3.61517000  -0.03591570  0.00812461  1
  Mo  Mo5  1  5.47034000  1.87770000  3.65925000  1
  Mo  Mo6  1  5.48786000  7.28321000  1.85295000  1
  Mo  Mo7  1  3.68842000  1.83290000  1.83905000  1
  Mo  Mo8  1  7.31467000  3.67038000  3.58899000  1
  Mo  Mo9  1  1.88686000  5.48188000  3.65995000  1
  Mo  Mo10  1  1.78730000  3.62874000  1.79588000  1
  Mo  Mo11  1  -0.04918990  5.42151000  1.79378000  1
  Mo  Mo12  1  3.62954000  3.61598000  3.61543000  1
  Mo  Mo13  1  5.46956000  5.44650000  0.04222510  1
  Mo  Mo14  1  5.43213000  3.63965000  1.80242000  1
  Mo  Mo15  1  3.64808000  5.48909000  1.83428000  1
