# generated using pymatgen
data_Mo
_symmetry_space_group_name_H-M   'P 1'
_cell_length_a   7.28075024
_cell_length_b   7.28075024
_cell_length_c   3.64037514
_cell_angle_alpha   90.00000000
_cell_angle_beta   90.00000000
_cell_angle_gamma   90.00000000
_symmetry_Int_Tables_number   1
_chemical_formula_structural   Mo
_chemical_formula_sum   Mo16
_cell_volume   192.97382539
_cell_formula_units_Z   16
loop_
 _symmetry_equiv_pos_site_id
 _symmetry_equiv_pos_as_xyz
  1  'x, y, z'
loop_
 _atom_site_type_symbol
 _atom_site_label
 _atom_site_symmetry_multiplicity
 _atom_site_fract_x
 _atom_site_fract_y
 _atom_site_fract_z
 _atom_site_occupancy
  Mo  Mo0  1  -0.00397767  7.31370000  3.69064000  1
  Mo  Mo1  1  1.82218000  1.82172000  3.62234000  1
  Mo  Mo2  1  1.82904000  -0.03396260  1.80703000  1
  Mo  Mo3  1  0.03374030  1.80498000  1.78238000  1
  Mo  Mo4  1  3.67884000  -0.00470500  0.04742550  1
  Mo  Mo5  1  5.39124000  1.82741000  3.62888000  1
  Mo  Mo6  1  5.45191000  7.28102000  1.74957000  1
  Mo  Mo7  1  3.62069000  1.79823000  1.90997000  1
  Mo  Mo8  1  7.23033000  3.60994000  3.63997000  1
  Mo  Mo9  1  1.80458000  5.41784000  3.64912000  1
  Mo  Mo10  1  1.84412000  3.62637000  1.80901000  1
  Mo  Mo11  1  -0.00770618  5.54268000  1.82927000  1
  Mo  Mo12  1  3.65189000  3.63276000  3.59072000  1
  Mo  Mo13  1  5.45492000  5.46577000  -0.04827850  1
  Mo  Mo14  1  5.53617000  3.62606000  1.83547000  1
  Mo  Mo15  1  3.60528000  5.49418000  1.84922000  1
