# generated using pymatgen
data_Mo
_symmetry_space_group_name_H-M   'P 1'
_cell_length_a   7.28075024
_cell_length_b   7.28075024
_cell_length_c   3.64037514
_cell_angle_alpha   90.00000000
_cell_angle_beta   90.00000000
_cell_angle_gamma   90.00000000
_symmetry_Int_Tables_number   1
_chemical_formula_structural   Mo
_chemical_formula_sum   Mo16
_cell_volume   192.97382539
_cell_formula_units_Z   16
loop_
 _symmetry_equiv_pos_site_id
 _symmetry_equiv_pos_as_xyz
  1  'x, y, z'
loop_
 _atom_site_type_symbol
 _atom_site_label
 _atom_site_symmetry_multiplicity
 _atom_site_fract_x
 _atom_site_fract_y
 _atom_site_fract_z
 _atom_site_occupancy
  Mo  Mo0  1  0.03427230  7.25129000  3.63505000  1
  Mo  Mo1  1  1.79875000  1.88865000  3.61291000  1
  Mo  Mo2  1  1.78035000  0.00197265  1.82540000  1
  Mo  Mo3  1  0.03815060  1.78898000  1.84522000  1
  Mo  Mo4  1  3.68071000  -0.00677800  0.04664850  1
  Mo  Mo5  1  5.50628000  1.79455000  3.60901000  1
  Mo  Mo6  1  5.45941000  7.33136000  1.79881000  1
  Mo  Mo7  1  3.63421000  1.79466000  1.75425000  1
  Mo  Mo8  1  7.25000000  3.64770000  3.62479000  1
  Mo  Mo9  1  1.81500000  5.50785000  3.61851000  1
  Mo  Mo10  1  1.80452000  3.61910000  1.83426000  1
  Mo  Mo11  1  -0.05944860  5.44751000  1.85648000  1
  Mo  Mo12  1  3.61985000  3.66450000  3.60670000  1
  Mo  Mo13  1  5.46825000  5.42862000  0.08853320  1
  Mo  Mo14  1  5.40481000  3.59107000  1.86801000  1
  Mo  Mo15  1  3.70812000  5.47297000  1.76816000  1
