# generated using pymatgen
data_Mo
_symmetry_space_group_name_H-M   'P 1'
_cell_length_a   7.27808089
_cell_length_b   7.27808089
_cell_length_c   3.63904047
_cell_angle_alpha   90.00000000
_cell_angle_beta   90.00000000
_cell_angle_gamma   90.00000000
_symmetry_Int_Tables_number   1
_chemical_formula_structural   Mo
_chemical_formula_sum   Mo16
_cell_volume   192.76165285
_cell_formula_units_Z   16
loop_
 _symmetry_equiv_pos_site_id
 _symmetry_equiv_pos_as_xyz
  1  'x, y, z'
loop_
 _atom_site_type_symbol
 _atom_site_label
 _atom_site_symmetry_multiplicity
 _atom_site_fract_x
 _atom_site_fract_y
 _atom_site_fract_z
 _atom_site_occupancy
  Mo  Mo0  1  0.01373510  7.28216000  0.00744011  1
  Mo  Mo1  1  1.81101000  1.80975000  0.00600501  1
  Mo  Mo2  1  1.81739000  7.26522000  1.81830000  1
  Mo  Mo3  1  7.27735000  1.81774000  1.83497000  1
  Mo  Mo4  1  3.64129000  7.27543000  3.64854000  1
  Mo  Mo5  1  5.45788000  1.82170000  -0.00284675  1
  Mo  Mo6  1  5.44539000  -0.00030587  1.81511000  1
  Mo  Mo7  1  3.64168000  1.82718000  1.81743000  1
  Mo  Mo8  1  7.27838000  3.64078000  3.64048000  1
  Mo  Mo9  1  1.82026000  5.44613000  3.63525000  1
  Mo  Mo10  1  1.83408000  3.64877000  1.81975000  1
  Mo  Mo11  1  7.28003000  5.46297000  1.81400000  1
  Mo  Mo12  1  3.63350000  3.63776000  -0.01629010  1
  Mo  Mo13  1  5.45340000  5.45247000  3.63993000  1
  Mo  Mo14  1  5.46934000  3.65249000  1.83073000  1
  Mo  Mo15  1  3.62738000  5.46186000  1.80320000  1
