# generated using pymatgen
data_Mo
_symmetry_space_group_name_H-M   'P 1'
_cell_length_a   7.28075024
_cell_length_b   7.28075024
_cell_length_c   3.64037514
_cell_angle_alpha   90.00000000
_cell_angle_beta   90.00000000
_cell_angle_gamma   90.00000000
_symmetry_Int_Tables_number   1
_chemical_formula_structural   Mo
_chemical_formula_sum   Mo16
_cell_volume   192.97382539
_cell_formula_units_Z   16
loop_
 _symmetry_equiv_pos_site_id
 _symmetry_equiv_pos_as_xyz
  1  'x, y, z'
loop_
 _atom_site_type_symbol
 _atom_site_label
 _atom_site_symmetry_multiplicity
 _atom_site_fract_x
 _atom_site_fract_y
 _atom_site_fract_z
 _atom_site_occupancy
  Mo  Mo0  1  0.00409891  7.29442000  3.66131000  1
  Mo  Mo1  1  1.83186000  1.81567000  3.65064000  1
  Mo  Mo2  1  1.81161000  -0.03941230  1.89388000  1
  Mo  Mo3  1  -0.00428152  1.81613000  1.80461000  1
  Mo  Mo4  1  3.68600000  0.06257470  0.01307990  1
  Mo  Mo5  1  5.46504000  1.82543000  3.62401000  1
  Mo  Mo6  1  5.43804000  7.24152000  1.83175000  1
  Mo  Mo7  1  3.59081000  1.79393000  1.79206000  1
  Mo  Mo8  1  7.29887000  3.61162000  3.59036000  1
  Mo  Mo9  1  1.77001000  5.44821000  3.66083000  1
  Mo  Mo10  1  1.79422000  3.65227000  1.75637000  1
  Mo  Mo11  1  0.03897920  5.49898000  1.87028000  1
  Mo  Mo12  1  3.66685000  3.66431000  3.60740000  1
  Mo  Mo13  1  5.47595000  5.42497000  0.02111370  1
  Mo  Mo14  1  5.44896000  3.62421000  1.82397000  1
  Mo  Mo15  1  3.62623000  5.48916000  1.79107000  1
