# generated using pymatgen
data_Mo
_symmetry_space_group_name_H-M   'P 1'
_cell_length_a   7.28075024
_cell_length_b   7.28075024
_cell_length_c   3.64037514
_cell_angle_alpha   90.00000000
_cell_angle_beta   90.00000000
_cell_angle_gamma   90.00000000
_symmetry_Int_Tables_number   1
_chemical_formula_structural   Mo
_chemical_formula_sum   Mo16
_cell_volume   192.97382539
_cell_formula_units_Z   16
loop_
 _symmetry_equiv_pos_site_id
 _symmetry_equiv_pos_as_xyz
  1  'x, y, z'
loop_
 _atom_site_type_symbol
 _atom_site_label
 _atom_site_symmetry_multiplicity
 _atom_site_fract_x
 _atom_site_fract_y
 _atom_site_fract_z
 _atom_site_occupancy
  Mo  Mo0  1  -0.04088840  7.31165000  3.63165000  1
  Mo  Mo1  1  1.82960000  1.83296000  3.57173000  1
  Mo  Mo2  1  1.83870000  -0.00937643  1.85076000  1
  Mo  Mo3  1  0.02455670  1.82089000  1.83055000  1
  Mo  Mo4  1  3.61403000  0.00846531  0.01316750  1
  Mo  Mo5  1  5.42861000  1.80345000  3.62600000  1
  Mo  Mo6  1  5.47125000  7.31145000  1.85326000  1
  Mo  Mo7  1  3.63492000  1.81066000  1.83543000  1
  Mo  Mo8  1  7.31281000  3.65591000  3.61744000  1
  Mo  Mo9  1  1.85414000  5.40743000  3.62543000  1
  Mo  Mo10  1  1.79686000  3.67323000  1.76312000  1
  Mo  Mo11  1  0.01028890  5.44344000  1.83151000  1
  Mo  Mo12  1  3.64322000  3.62470000  3.67458000  1
  Mo  Mo13  1  5.42745000  5.42722000  0.01790270  1
  Mo  Mo14  1  5.44104000  3.58463000  1.79830000  1
  Mo  Mo15  1  3.65666000  5.51729000  1.85192000  1
