# generated using pymatgen
data_Mo
_symmetry_space_group_name_H-M   'P 1'
_cell_length_a   7.28075024
_cell_length_b   7.28075024
_cell_length_c   3.64037514
_cell_angle_alpha   90.00000000
_cell_angle_beta   90.00000000
_cell_angle_gamma   90.00000000
_symmetry_Int_Tables_number   1
_chemical_formula_structural   Mo
_chemical_formula_sum   Mo16
_cell_volume   192.97382539
_cell_formula_units_Z   16
loop_
 _symmetry_equiv_pos_site_id
 _symmetry_equiv_pos_as_xyz
  1  'x, y, z'
loop_
 _atom_site_type_symbol
 _atom_site_label
 _atom_site_symmetry_multiplicity
 _atom_site_fract_x
 _atom_site_fract_y
 _atom_site_fract_z
 _atom_site_occupancy
  Mo  Mo0  1  0.03520550  7.20311000  3.62380000  1
  Mo  Mo1  1  1.81973000  1.82121000  3.63381000  1
  Mo  Mo2  1  1.79108000  0.07208240  1.85212000  1
  Mo  Mo3  1  -0.03235790  1.83933000  1.81413000  1
  Mo  Mo4  1  3.67245000  0.03950090  0.04143220  1
  Mo  Mo5  1  5.43897000  1.84464000  3.64274000  1
  Mo  Mo6  1  5.44000000  7.33418000  1.83094000  1
  Mo  Mo7  1  3.63737000  1.75086000  1.80880000  1
  Mo  Mo8  1  7.28673000  3.64425000  3.62762000  1
  Mo  Mo9  1  1.84955000  5.49036000  3.64338000  1
  Mo  Mo10  1  1.85534000  3.65614000  1.77298000  1
  Mo  Mo11  1  0.02802880  5.44721000  1.88851000  1
  Mo  Mo12  1  3.56116000  3.61927000  3.63272000  1
  Mo  Mo13  1  5.41735000  5.40635000  -0.04816600  1
  Mo  Mo14  1  5.45573000  3.62174000  1.83059000  1
  Mo  Mo15  1  3.68691000  5.43375000  1.79736000  1
