# generated using pymatgen
data_Mo
_symmetry_space_group_name_H-M   'P 1'
_cell_length_a   7.28075024
_cell_length_b   7.28075024
_cell_length_c   3.64037514
_cell_angle_alpha   90.00000000
_cell_angle_beta   90.00000000
_cell_angle_gamma   90.00000000
_symmetry_Int_Tables_number   1
_chemical_formula_structural   Mo
_chemical_formula_sum   Mo16
_cell_volume   192.97382539
_cell_formula_units_Z   16
loop_
 _symmetry_equiv_pos_site_id
 _symmetry_equiv_pos_as_xyz
  1  'x, y, z'
loop_
 _atom_site_type_symbol
 _atom_site_label
 _atom_site_symmetry_multiplicity
 _atom_site_fract_x
 _atom_site_fract_y
 _atom_site_fract_z
 _atom_site_occupancy
  Mo  Mo0  1  0.00261002  7.29527000  3.57604000  1
  Mo  Mo1  1  1.88242000  1.78284000  3.66596000  1
  Mo  Mo2  1  1.84455000  0.01275090  1.86735000  1
  Mo  Mo3  1  -0.01020660  1.78096000  1.83780000  1
  Mo  Mo4  1  3.56396000  -0.01977590  -0.05210950  1
  Mo  Mo5  1  5.48453000  1.81646000  3.67498000  1
  Mo  Mo6  1  5.42319000  7.31537000  1.82733000  1
  Mo  Mo7  1  3.63881000  1.85066000  1.75675000  1
  Mo  Mo8  1  7.30322000  3.62007000  3.64041000  1
  Mo  Mo9  1  1.79851000  5.49244000  3.68469000  1
  Mo  Mo10  1  1.80358000  3.60659000  1.83789000  1
  Mo  Mo11  1  -0.03710330  5.43736000  1.80830000  1
  Mo  Mo12  1  3.66495000  3.65357000  3.70983000  1
  Mo  Mo13  1  5.48406000  5.50849000  -0.01330980  1
  Mo  Mo14  1  5.41074000  3.65952000  1.80406000  1
  Mo  Mo15  1  3.68544000  5.41143000  1.76678000  1
