# generated using pymatgen
data_Mo
_symmetry_space_group_name_H-M   'P 1'
_cell_length_a   7.28075024
_cell_length_b   7.28075024
_cell_length_c   3.64037514
_cell_angle_alpha   90.00000000
_cell_angle_beta   90.00000000
_cell_angle_gamma   90.00000000
_symmetry_Int_Tables_number   1
_chemical_formula_structural   Mo
_chemical_formula_sum   Mo16
_cell_volume   192.97382539
_cell_formula_units_Z   16
loop_
 _symmetry_equiv_pos_site_id
 _symmetry_equiv_pos_as_xyz
  1  'x, y, z'
loop_
 _atom_site_type_symbol
 _atom_site_label
 _atom_site_symmetry_multiplicity
 _atom_site_fract_x
 _atom_site_fract_y
 _atom_site_fract_z
 _atom_site_occupancy
  Mo  Mo0  1  -0.04551180  7.30524000  3.65010000  1
  Mo  Mo1  1  1.84538000  1.79079000  3.62454000  1
  Mo  Mo2  1  1.82261000  0.02785460  1.76503000  1
  Mo  Mo3  1  0.03683070  1.81029000  1.83935000  1
  Mo  Mo4  1  3.63777000  -0.00630373  -0.05873630  1
  Mo  Mo5  1  5.43548000  1.85223000  3.63371000  1
  Mo  Mo6  1  5.51438000  7.26444000  1.83889000  1
  Mo  Mo7  1  3.62774000  1.79565000  1.81744000  1
  Mo  Mo8  1  7.22824000  3.61619000  3.69380000  1
  Mo  Mo9  1  1.85305000  5.46689000  3.65954000  1
  Mo  Mo10  1  1.80215000  3.66507000  1.83200000  1
  Mo  Mo11  1  -0.00941157  5.45756000  1.78062000  1
  Mo  Mo12  1  3.63354000  3.64806000  3.67152000  1
  Mo  Mo13  1  5.49301000  5.46319000  -0.03461390  1
  Mo  Mo14  1  5.42634000  3.61287000  1.80115000  1
  Mo  Mo15  1  3.64166000  5.45397000  1.87841000  1
