# generated using pymatgen
data_Mo
_symmetry_space_group_name_H-M   'P 1'
_cell_length_a   7.28075024
_cell_length_b   7.28075024
_cell_length_c   3.64037514
_cell_angle_alpha   90.00000000
_cell_angle_beta   90.00000000
_cell_angle_gamma   90.00000000
_symmetry_Int_Tables_number   1
_chemical_formula_structural   Mo
_chemical_formula_sum   Mo16
_cell_volume   192.97382539
_cell_formula_units_Z   16
loop_
 _symmetry_equiv_pos_site_id
 _symmetry_equiv_pos_as_xyz
  1  'x, y, z'
loop_
 _atom_site_type_symbol
 _atom_site_label
 _atom_site_symmetry_multiplicity
 _atom_site_fract_x
 _atom_site_fract_y
 _atom_site_fract_z
 _atom_site_occupancy
  Mo  Mo0  1  -0.02796870  7.29540000  3.63920000  1
  Mo  Mo1  1  1.87764000  1.86413000  3.66011000  1
  Mo  Mo2  1  1.81996000  0.01659020  1.81972000  1
  Mo  Mo3  1  -0.02402580  1.77588000  1.86191000  1
  Mo  Mo4  1  3.60795000  -0.01831400  -0.01281950  1
  Mo  Mo5  1  5.44719000  1.83935000  3.64483000  1
  Mo  Mo6  1  5.46418000  7.24557000  1.83485000  1
  Mo  Mo7  1  3.59427000  1.80383000  1.77625000  1
  Mo  Mo8  1  7.26345000  3.59700000  3.67341000  1
  Mo  Mo9  1  1.86202000  5.46036000  3.66448000  1
  Mo  Mo10  1  1.77632000  3.64750000  1.87436000  1
  Mo  Mo11  1  0.01973410  5.50756000  1.83762000  1
  Mo  Mo12  1  3.65093000  3.69100000  3.60807000  1
  Mo  Mo13  1  5.47538000  5.45158000  -0.02003010  1
  Mo  Mo14  1  5.43846000  3.62574000  1.75204000  1
  Mo  Mo15  1  3.69776000  5.42082000  1.77873000  1
