# generated using pymatgen
data_Mo
_symmetry_space_group_name_H-M   'P 1'
_cell_length_a   7.28075024
_cell_length_b   7.28075024
_cell_length_c   3.64037514
_cell_angle_alpha   90.00000000
_cell_angle_beta   90.00000000
_cell_angle_gamma   90.00000000
_symmetry_Int_Tables_number   1
_chemical_formula_structural   Mo
_chemical_formula_sum   Mo16
_cell_volume   192.97382539
_cell_formula_units_Z   16
loop_
 _symmetry_equiv_pos_site_id
 _symmetry_equiv_pos_as_xyz
  1  'x, y, z'
loop_
 _atom_site_type_symbol
 _atom_site_label
 _atom_site_symmetry_multiplicity
 _atom_site_fract_x
 _atom_site_fract_y
 _atom_site_fract_z
 _atom_site_occupancy
  Mo  Mo0  1  -0.02882280  7.31650000  3.60188000  1
  Mo  Mo1  1  1.86083000  1.83013000  3.64775000  1
  Mo  Mo2  1  1.81676000  -0.01000390  1.82980000  1
  Mo  Mo3  1  -0.01974650  1.81127000  1.82146000  1
  Mo  Mo4  1  3.66008000  -0.02290500  0.07356790  1
  Mo  Mo5  1  5.40043000  1.82388000  3.60676000  1
  Mo  Mo6  1  5.47030000  7.25280000  1.81218000  1
  Mo  Mo7  1  3.61616000  1.82622000  1.84404000  1
  Mo  Mo8  1  7.29125000  3.60486000  3.60499000  1
  Mo  Mo9  1  1.78641000  5.44250000  3.60160000  1
  Mo  Mo10  1  1.85472000  3.60187000  1.78545000  1
  Mo  Mo11  1  0.05469800  5.49124000  1.85811000  1
  Mo  Mo12  1  3.69136000  3.63141000  3.68232000  1
  Mo  Mo13  1  5.38050000  5.43698000  -0.00887375  1
  Mo  Mo14  1  5.48873000  3.71368000  1.77021000  1
  Mo  Mo15  1  3.61958000  5.47359000  1.86151000  1
