# generated using pymatgen
data_Mo
_symmetry_space_group_name_H-M   'P 1'
_cell_length_a   7.28075024
_cell_length_b   7.28075024
_cell_length_c   3.64037514
_cell_angle_alpha   90.00000000
_cell_angle_beta   90.00000000
_cell_angle_gamma   90.00000000
_symmetry_Int_Tables_number   1
_chemical_formula_structural   Mo
_chemical_formula_sum   Mo16
_cell_volume   192.97382539
_cell_formula_units_Z   16
loop_
 _symmetry_equiv_pos_site_id
 _symmetry_equiv_pos_as_xyz
  1  'x, y, z'
loop_
 _atom_site_type_symbol
 _atom_site_label
 _atom_site_symmetry_multiplicity
 _atom_site_fract_x
 _atom_site_fract_y
 _atom_site_fract_z
 _atom_site_occupancy
  Mo  Mo0  1  -0.00297610  7.28888000  3.61573000  1
  Mo  Mo1  1  1.79169000  1.77820000  3.62212000  1
  Mo  Mo2  1  1.82333000  -0.00213197  1.76509000  1
  Mo  Mo3  1  0.01784390  1.82591000  1.81696000  1
  Mo  Mo4  1  3.64533000  -0.06051740  0.02150160  1
  Mo  Mo5  1  5.44177000  1.80388000  3.65212000  1
  Mo  Mo6  1  5.46510000  7.32035000  1.80108000  1
  Mo  Mo7  1  3.69965000  1.85655000  1.84768000  1
  Mo  Mo8  1  7.27621000  3.63622000  3.65723000  1
  Mo  Mo9  1  1.76497000  5.48869000  3.60386000  1
  Mo  Mo10  1  1.81419000  3.62882000  1.81174000  1
  Mo  Mo11  1  -0.04142430  5.43765000  1.75505000  1
  Mo  Mo12  1  3.62620000  3.62556000  3.68049000  1
  Mo  Mo13  1  5.48189000  5.49875000  0.01057490  1
  Mo  Mo14  1  5.50680000  3.64735000  1.85400000  1
  Mo  Mo15  1  3.63267000  5.44985000  1.87753000  1
