# generated using pymatgen
data_Mo
_symmetry_space_group_name_H-M   'P 1'
_cell_length_a   7.28075024
_cell_length_b   7.28075024
_cell_length_c   3.64037514
_cell_angle_alpha   90.00000000
_cell_angle_beta   90.00000000
_cell_angle_gamma   90.00000000
_symmetry_Int_Tables_number   1
_chemical_formula_structural   Mo
_chemical_formula_sum   Mo16
_cell_volume   192.97382539
_cell_formula_units_Z   16
loop_
 _symmetry_equiv_pos_site_id
 _symmetry_equiv_pos_as_xyz
  1  'x, y, z'
loop_
 _atom_site_type_symbol
 _atom_site_label
 _atom_site_symmetry_multiplicity
 _atom_site_fract_x
 _atom_site_fract_y
 _atom_site_fract_z
 _atom_site_occupancy
  Mo  Mo0  1  -0.03166120  7.29323000  3.61209000  1
  Mo  Mo1  1  1.88350000  1.83387000  3.61706000  1
  Mo  Mo2  1  1.81082000  0.00334548  1.82522000  1
  Mo  Mo3  1  -0.00006470  1.83185000  1.84117000  1
  Mo  Mo4  1  3.56050000  -0.03201360  -0.01821760  1
  Mo  Mo5  1  5.45541000  1.81510000  3.67210000  1
  Mo  Mo6  1  5.49430000  7.28234000  1.76975000  1
  Mo  Mo7  1  3.63417000  1.82159000  1.85239000  1
  Mo  Mo8  1  7.28471000  3.57508000  3.64059000  1
  Mo  Mo9  1  1.81451000  5.46003000  3.57338000  1
  Mo  Mo10  1  1.72652000  3.64197000  1.79346000  1
  Mo  Mo11  1  0.03022550  5.45177000  1.79512000  1
  Mo  Mo12  1  3.62908000  3.69377000  3.71813000  1
  Mo  Mo13  1  5.47114000  5.51998000  0.01229700  1
  Mo  Mo14  1  5.48200000  3.64066000  1.86752000  1
  Mo  Mo15  1  3.69809000  5.39143000  1.82070000  1
