# generated using pymatgen
data_Mo
_symmetry_space_group_name_H-M   'P 1'
_cell_length_a   7.28075024
_cell_length_b   7.28075024
_cell_length_c   3.64037514
_cell_angle_alpha   90.00000000
_cell_angle_beta   90.00000000
_cell_angle_gamma   90.00000000
_symmetry_Int_Tables_number   1
_chemical_formula_structural   Mo
_chemical_formula_sum   Mo16
_cell_volume   192.97382539
_cell_formula_units_Z   16
loop_
 _symmetry_equiv_pos_site_id
 _symmetry_equiv_pos_as_xyz
  1  'x, y, z'
loop_
 _atom_site_type_symbol
 _atom_site_label
 _atom_site_symmetry_multiplicity
 _atom_site_fract_x
 _atom_site_fract_y
 _atom_site_fract_z
 _atom_site_occupancy
  Mo  Mo0  1  0.03675780  7.29780000  3.58969000  1
  Mo  Mo1  1  1.76418000  1.80108000  3.69957000  1
  Mo  Mo2  1  1.81132000  -0.01015750  1.86480000  1
  Mo  Mo3  1  0.00632805  1.82381000  1.73507000  1
  Mo  Mo4  1  3.63123000  0.02128950  -0.00563037  1
  Mo  Mo5  1  5.48333000  1.84976000  3.63339000  1
  Mo  Mo6  1  5.47681000  7.25643000  1.80882000  1
  Mo  Mo7  1  3.60378000  1.78948000  1.88373000  1
  Mo  Mo8  1  7.31407000  3.65052000  3.65772000  1
  Mo  Mo9  1  1.80292000  5.38491000  3.64315000  1
  Mo  Mo10  1  1.84627000  3.65706000  1.80691000  1
  Mo  Mo11  1  -0.03252010  5.48421000  1.75846000  1
  Mo  Mo12  1  3.69416000  3.59753000  3.67237000  1
  Mo  Mo13  1  5.42417000  5.49947000  -0.04238910  1
  Mo  Mo14  1  5.42981000  3.64295000  1.81200000  1
  Mo  Mo15  1  3.65063000  5.47785000  1.87509000  1
