# generated using pymatgen
data_Mo
_symmetry_space_group_name_H-M   'P 1'
_cell_length_a   7.28075024
_cell_length_b   7.28075024
_cell_length_c   3.64037514
_cell_angle_alpha   90.00000000
_cell_angle_beta   90.00000000
_cell_angle_gamma   90.00000000
_symmetry_Int_Tables_number   1
_chemical_formula_structural   Mo
_chemical_formula_sum   Mo16
_cell_volume   192.97382539
_cell_formula_units_Z   16
loop_
 _symmetry_equiv_pos_site_id
 _symmetry_equiv_pos_as_xyz
  1  'x, y, z'
loop_
 _atom_site_type_symbol
 _atom_site_label
 _atom_site_symmetry_multiplicity
 _atom_site_fract_x
 _atom_site_fract_y
 _atom_site_fract_z
 _atom_site_occupancy
  Mo  Mo0  1  0.06111920  7.34208000  3.59709000  1
  Mo  Mo1  1  1.79086000  1.82085000  3.64572000  1
  Mo  Mo2  1  1.83602000  -0.02437190  1.75807000  1
  Mo  Mo3  1  0.02522110  1.78296000  1.80282000  1
  Mo  Mo4  1  3.66962000  -0.04900120  -0.00595788  1
  Mo  Mo5  1  5.45218000  1.81527000  3.68227000  1
  Mo  Mo6  1  5.43290000  7.28982000  1.81659000  1
  Mo  Mo7  1  3.61672000  1.87911000  1.84310000  1
  Mo  Mo8  1  7.25958000  3.61575000  3.62139000  1
  Mo  Mo9  1  1.76073000  5.39781000  3.62382000  1
  Mo  Mo10  1  1.88526000  3.61497000  1.80151000  1
  Mo  Mo11  1  -0.05645170  5.48927000  1.74014000  1
  Mo  Mo12  1  3.65309000  3.67121000  3.68374000  1
  Mo  Mo13  1  5.50024000  5.44149000  0.01051440  1
  Mo  Mo14  1  5.48060000  3.66705000  1.91161000  1
  Mo  Mo15  1  3.57555000  5.46972000  1.86033000  1
