# generated using pymatgen
data_Mo
_symmetry_space_group_name_H-M   'P 1'
_cell_length_a   7.28075024
_cell_length_b   7.28075024
_cell_length_c   3.64037514
_cell_angle_alpha   90.00000000
_cell_angle_beta   90.00000000
_cell_angle_gamma   90.00000000
_symmetry_Int_Tables_number   1
_chemical_formula_structural   Mo
_chemical_formula_sum   Mo16
_cell_volume   192.97382539
_cell_formula_units_Z   16
loop_
 _symmetry_equiv_pos_site_id
 _symmetry_equiv_pos_as_xyz
  1  'x, y, z'
loop_
 _atom_site_type_symbol
 _atom_site_label
 _atom_site_symmetry_multiplicity
 _atom_site_fract_x
 _atom_site_fract_y
 _atom_site_fract_z
 _atom_site_occupancy
  Mo  Mo0  1  0.08112770  7.33430000  3.72035000  1
  Mo  Mo1  1  1.77771000  1.86606000  3.66768000  1
  Mo  Mo2  1  1.78481000  0.01535120  1.88105000  1
  Mo  Mo3  1  0.00609881  1.75180000  1.84574000  1
  Mo  Mo4  1  3.67693000  -0.04751550  -0.03053180  1
  Mo  Mo5  1  5.42404000  1.79978000  3.58926000  1
  Mo  Mo6  1  5.43015000  7.27228000  1.80964000  1
  Mo  Mo7  1  3.61120000  1.82314000  1.76114000  1
  Mo  Mo8  1  7.23608000  3.62768000  3.62503000  1
  Mo  Mo9  1  1.77696000  5.44514000  3.70506000  1
  Mo  Mo10  1  1.86154000  3.64724000  1.79000000  1
  Mo  Mo11  1  -0.02058780  5.51477000  1.85478000  1
  Mo  Mo12  1  3.66493000  3.63861000  3.57057000  1
  Mo  Mo13  1  5.55402000  5.42093000  -0.03324000  1
  Mo  Mo14  1  5.46584000  3.61702000  1.81497000  1
  Mo  Mo15  1  3.61240000  5.49743000  1.82125000  1
