# generated using pymatgen
data_Mo
_symmetry_space_group_name_H-M   'P 1'
_cell_length_a   7.28075024
_cell_length_b   7.28075024
_cell_length_c   3.64037514
_cell_angle_alpha   90.00000000
_cell_angle_beta   90.00000000
_cell_angle_gamma   90.00000000
_symmetry_Int_Tables_number   1
_chemical_formula_structural   Mo
_chemical_formula_sum   Mo16
_cell_volume   192.97382539
_cell_formula_units_Z   16
loop_
 _symmetry_equiv_pos_site_id
 _symmetry_equiv_pos_as_xyz
  1  'x, y, z'
loop_
 _atom_site_type_symbol
 _atom_site_label
 _atom_site_symmetry_multiplicity
 _atom_site_fract_x
 _atom_site_fract_y
 _atom_site_fract_z
 _atom_site_occupancy
  Mo  Mo0  1  0.02420120  7.31405000  3.57653000  1
  Mo  Mo1  1  1.79566000  1.80625000  3.63090000  1
  Mo  Mo2  1  1.78229000  -0.01460600  1.81049000  1
  Mo  Mo3  1  -0.03431760  1.84202000  1.81171000  1
  Mo  Mo4  1  3.68204000  -0.02065780  0.01341310  1
  Mo  Mo5  1  5.45052000  1.79064000  3.66823000  1
  Mo  Mo6  1  5.46824000  7.30806000  1.77434000  1
  Mo  Mo7  1  3.62467000  1.82829000  1.82217000  1
  Mo  Mo8  1  7.30247000  3.61547000  3.59015000  1
  Mo  Mo9  1  1.77295000  5.48052000  3.66605000  1
  Mo  Mo10  1  1.86176000  3.59450000  1.89876000  1
  Mo  Mo11  1  -0.02571170  5.46302000  1.80979000  1
  Mo  Mo12  1  3.64752000  3.64044000  3.69701000  1
  Mo  Mo13  1  5.44568000  5.45436000  -0.02675680  1
  Mo  Mo14  1  5.45071000  3.65350000  1.83383000  1
  Mo  Mo15  1  3.69456000  5.46814000  1.81613000  1
