# generated using pymatgen
data_Mo
_symmetry_space_group_name_H-M   'P 1'
_cell_length_a   7.28075024
_cell_length_b   7.28075024
_cell_length_c   3.64037514
_cell_angle_alpha   90.00000000
_cell_angle_beta   90.00000000
_cell_angle_gamma   90.00000000
_symmetry_Int_Tables_number   1
_chemical_formula_structural   Mo
_chemical_formula_sum   Mo16
_cell_volume   192.97382539
_cell_formula_units_Z   16
loop_
 _symmetry_equiv_pos_site_id
 _symmetry_equiv_pos_as_xyz
  1  'x, y, z'
loop_
 _atom_site_type_symbol
 _atom_site_label
 _atom_site_symmetry_multiplicity
 _atom_site_fract_x
 _atom_site_fract_y
 _atom_site_fract_z
 _atom_site_occupancy
  Mo  Mo0  1  -0.03144880  7.28323000  3.68167000  1
  Mo  Mo1  1  1.82458000  1.82585000  3.62733000  1
  Mo  Mo2  1  1.76791000  0.02478830  1.81195000  1
  Mo  Mo3  1  0.02051870  1.79847000  1.82472000  1
  Mo  Mo4  1  3.61691000  -0.00601101  -0.01517230  1
  Mo  Mo5  1  5.46966000  1.88462000  3.64429000  1
  Mo  Mo6  1  5.44841000  7.27229000  1.89347000  1
  Mo  Mo7  1  3.69592000  1.76470000  1.80926000  1
  Mo  Mo8  1  7.28063000  3.62444000  3.63165000  1
  Mo  Mo9  1  1.80196000  5.45135000  3.66654000  1
  Mo  Mo10  1  1.78805000  3.63557000  1.81061000  1
  Mo  Mo11  1  -0.00440400  5.45769000  1.75764000  1
  Mo  Mo12  1  3.66078000  3.65065000  3.61304000  1
  Mo  Mo13  1  5.53192000  5.46301000  -0.00849774  1
  Mo  Mo14  1  5.43493000  3.61508000  1.77759000  1
  Mo  Mo15  1  3.63693000  5.47828000  1.86667000  1
