# generated using pymatgen
data_Mo
_symmetry_space_group_name_H-M   'P 1'
_cell_length_a   7.28075024
_cell_length_b   7.28075024
_cell_length_c   3.64037514
_cell_angle_alpha   90.00000000
_cell_angle_beta   90.00000000
_cell_angle_gamma   90.00000000
_symmetry_Int_Tables_number   1
_chemical_formula_structural   Mo
_chemical_formula_sum   Mo16
_cell_volume   192.97382539
_cell_formula_units_Z   16
loop_
 _symmetry_equiv_pos_site_id
 _symmetry_equiv_pos_as_xyz
  1  'x, y, z'
loop_
 _atom_site_type_symbol
 _atom_site_label
 _atom_site_symmetry_multiplicity
 _atom_site_fract_x
 _atom_site_fract_y
 _atom_site_fract_z
 _atom_site_occupancy
  Mo  Mo0  1  0.02162970  7.27827000  3.59617000  1
  Mo  Mo1  1  1.82892000  1.80947000  3.59860000  1
  Mo  Mo2  1  1.80719000  0.02170320  1.87819000  1
  Mo  Mo3  1  -0.01847010  1.79418000  1.82391000  1
  Mo  Mo4  1  3.58628000  -0.04460130  -0.00973295  1
  Mo  Mo5  1  5.49320000  1.79089000  3.66148000  1
  Mo  Mo6  1  5.46292000  7.27892000  1.89735000  1
  Mo  Mo7  1  3.63592000  1.84428000  1.77339000  1
  Mo  Mo8  1  7.29959000  3.64366000  3.59334000  1
  Mo  Mo9  1  1.81143000  5.51810000  3.65314000  1
  Mo  Mo10  1  1.75831000  3.65118000  1.77925000  1
  Mo  Mo11  1  -0.02481310  5.45517000  1.82016000  1
  Mo  Mo12  1  3.65323000  3.64954000  3.68656000  1
  Mo  Mo13  1  5.51309000  5.48052000  0.02166690  1
  Mo  Mo14  1  5.40801000  3.61927000  1.80659000  1
  Mo  Mo15  1  3.70681000  5.43345000  1.81269000  1
