# generated using pymatgen
data_Mo
_symmetry_space_group_name_H-M   'P 1'
_cell_length_a   7.28075024
_cell_length_b   7.28075024
_cell_length_c   3.64037514
_cell_angle_alpha   90.00000000
_cell_angle_beta   90.00000000
_cell_angle_gamma   90.00000000
_symmetry_Int_Tables_number   1
_chemical_formula_structural   Mo
_chemical_formula_sum   Mo16
_cell_volume   192.97382539
_cell_formula_units_Z   16
loop_
 _symmetry_equiv_pos_site_id
 _symmetry_equiv_pos_as_xyz
  1  'x, y, z'
loop_
 _atom_site_type_symbol
 _atom_site_label
 _atom_site_symmetry_multiplicity
 _atom_site_fract_x
 _atom_site_fract_y
 _atom_site_fract_z
 _atom_site_occupancy
  Mo  Mo0  1  0.00102098  7.31732000  3.73519000  1
  Mo  Mo1  1  1.78556000  1.84536000  3.63149000  1
  Mo  Mo2  1  1.82937000  -0.02389750  1.76606000  1
  Mo  Mo3  1  0.01478570  1.80828000  1.80375000  1
  Mo  Mo4  1  3.68608000  -0.01032120  0.05937300  1
  Mo  Mo5  1  5.41005000  1.79571000  3.61653000  1
  Mo  Mo6  1  5.48473000  7.26162000  1.82997000  1
  Mo  Mo7  1  3.60680000  1.78485000  1.84238000  1
  Mo  Mo8  1  7.21483000  3.61892000  3.58297000  1
  Mo  Mo9  1  1.80734000  5.44352000  3.61688000  1
  Mo  Mo10  1  1.83566000  3.66671000  1.79454000  1
  Mo  Mo11  1  0.01023550  5.53861000  1.77698000  1
  Mo  Mo12  1  3.63791000  3.63979000  3.60100000  1
  Mo  Mo13  1  5.46713000  5.44582000  0.02907430  1
  Mo  Mo14  1  5.53989000  3.61021000  1.79220000  1
  Mo  Mo15  1  3.61189000  5.48149000  1.91438000  1
