# generated using pymatgen
data_Mo
_symmetry_space_group_name_H-M   'P 1'
_cell_length_a   7.28075024
_cell_length_b   7.28075024
_cell_length_c   3.64037514
_cell_angle_alpha   90.00000000
_cell_angle_beta   90.00000000
_cell_angle_gamma   90.00000000
_symmetry_Int_Tables_number   1
_chemical_formula_structural   Mo
_chemical_formula_sum   Mo16
_cell_volume   192.97382539
_cell_formula_units_Z   16
loop_
 _symmetry_equiv_pos_site_id
 _symmetry_equiv_pos_as_xyz
  1  'x, y, z'
loop_
 _atom_site_type_symbol
 _atom_site_label
 _atom_site_symmetry_multiplicity
 _atom_site_fract_x
 _atom_site_fract_y
 _atom_site_fract_z
 _atom_site_occupancy
  Mo  Mo0  1  0.01268800  7.16347000  3.59012000  1
  Mo  Mo1  1  1.85785000  1.83289000  3.65542000  1
  Mo  Mo2  1  1.76082000  -0.01222210  1.82119000  1
  Mo  Mo3  1  -0.03473790  1.85666000  1.78269000  1
  Mo  Mo4  1  3.65515000  -0.00714104  0.02411150  1
  Mo  Mo5  1  5.50016000  1.88644000  3.67485000  1
  Mo  Mo6  1  5.43385000  7.34203000  1.80530000  1
  Mo  Mo7  1  3.66132000  1.76421000  1.79540000  1
  Mo  Mo8  1  7.30965000  3.64671000  3.66120000  1
  Mo  Mo9  1  1.83167000  5.48330000  3.66276000  1
  Mo  Mo10  1  1.83636000  3.64423000  1.81182000  1
  Mo  Mo11  1  -0.05478960  5.43560000  1.84477000  1
  Mo  Mo12  1  3.57320000  3.63119000  3.64046000  1
  Mo  Mo13  1  5.43373000  5.46473000  -0.02848110  1
  Mo  Mo14  1  5.50298000  3.63327000  1.87235000  1
  Mo  Mo15  1  3.66336000  5.45863000  1.77879000  1
