# generated using pymatgen
data_Mo
_symmetry_space_group_name_H-M   'P 1'
_cell_length_a   7.28075024
_cell_length_b   7.28075024
_cell_length_c   3.64037514
_cell_angle_alpha   90.00000000
_cell_angle_beta   90.00000000
_cell_angle_gamma   90.00000000
_symmetry_Int_Tables_number   1
_chemical_formula_structural   Mo
_chemical_formula_sum   Mo16
_cell_volume   192.97382539
_cell_formula_units_Z   16
loop_
 _symmetry_equiv_pos_site_id
 _symmetry_equiv_pos_as_xyz
  1  'x, y, z'
loop_
 _atom_site_type_symbol
 _atom_site_label
 _atom_site_symmetry_multiplicity
 _atom_site_fract_x
 _atom_site_fract_y
 _atom_site_fract_z
 _atom_site_occupancy
  Mo  Mo0  1  0.02441160  7.27959000  3.67024000  1
  Mo  Mo1  1  1.79853000  1.77662000  3.64246000  1
  Mo  Mo2  1  1.78680000  0.02905590  1.77002000  1
  Mo  Mo3  1  -0.01464250  1.82480000  1.85360000  1
  Mo  Mo4  1  3.62858000  -0.00219453  -0.05971370  1
  Mo  Mo5  1  5.45347000  1.79406000  3.62320000  1
  Mo  Mo6  1  5.43531000  7.23576000  1.80323000  1
  Mo  Mo7  1  3.70075000  1.86679000  1.80175000  1
  Mo  Mo8  1  7.28574000  3.59912000  3.66940000  1
  Mo  Mo9  1  1.80506000  5.47359000  3.64463000  1
  Mo  Mo10  1  1.80365000  3.60580000  1.90621000  1
  Mo  Mo11  1  -0.01906260  5.46110000  1.76498000  1
  Mo  Mo12  1  3.61569000  3.67970000  3.61558000  1
  Mo  Mo13  1  5.52815000  5.49975000  -0.00783278  1
  Mo  Mo14  1  5.48032000  3.64554000  1.85712000  1
  Mo  Mo15  1  3.63048000  5.45493000  1.83787000  1
