# generated using pymatgen
data_Mo
_symmetry_space_group_name_H-M   'P 1'
_cell_length_a   7.28075024
_cell_length_b   7.28075024
_cell_length_c   3.64037514
_cell_angle_alpha   90.00000000
_cell_angle_beta   90.00000000
_cell_angle_gamma   90.00000000
_symmetry_Int_Tables_number   1
_chemical_formula_structural   Mo
_chemical_formula_sum   Mo16
_cell_volume   192.97382539
_cell_formula_units_Z   16
loop_
 _symmetry_equiv_pos_site_id
 _symmetry_equiv_pos_as_xyz
  1  'x, y, z'
loop_
 _atom_site_type_symbol
 _atom_site_label
 _atom_site_symmetry_multiplicity
 _atom_site_fract_x
 _atom_site_fract_y
 _atom_site_fract_z
 _atom_site_occupancy
  Mo  Mo0  1  -0.04336630  7.26791000  3.66335000  1
  Mo  Mo1  1  1.78780000  1.83113000  3.66018000  1
  Mo  Mo2  1  1.80153000  0.01359030  1.85185000  1
  Mo  Mo3  1  -0.02824330  1.78234000  1.82495000  1
  Mo  Mo4  1  3.64171000  -0.02397320  -0.02459270  1
  Mo  Mo5  1  5.48574000  1.83714000  3.62445000  1
  Mo  Mo6  1  5.51645000  7.26117000  1.80722000  1
  Mo  Mo7  1  3.65010000  1.81147000  1.80818000  1
  Mo  Mo8  1  7.31341000  3.68212000  3.67934000  1
  Mo  Mo9  1  1.89590000  5.49263000  3.64449000  1
  Mo  Mo10  1  1.75269000  3.64983000  1.85379000  1
  Mo  Mo11  1  -0.03471250  5.42024000  1.78605000  1
  Mo  Mo12  1  3.61094000  3.62454000  3.55961000  1
  Mo  Mo13  1  5.50652000  5.43617000  0.03602670  1
  Mo  Mo14  1  5.43607000  3.62851000  1.81366000  1
  Mo  Mo15  1  3.65070000  5.50919000  1.80419000  1
