# generated using pymatgen
data_Mo
_symmetry_space_group_name_H-M   'P 1'
_cell_length_a   7.27808089
_cell_length_b   7.27808089
_cell_length_c   3.63904047
_cell_angle_alpha   90.00000000
_cell_angle_beta   90.00000000
_cell_angle_gamma   90.00000000
_symmetry_Int_Tables_number   1
_chemical_formula_structural   Mo
_chemical_formula_sum   Mo16
_cell_volume   192.76165285
_cell_formula_units_Z   16
loop_
 _symmetry_equiv_pos_site_id
 _symmetry_equiv_pos_as_xyz
  1  'x, y, z'
loop_
 _atom_site_type_symbol
 _atom_site_label
 _atom_site_symmetry_multiplicity
 _atom_site_fract_x
 _atom_site_fract_y
 _atom_site_fract_z
 _atom_site_occupancy
  Mo  Mo0  1  -0.00896271  7.28447000  0.00409366  1
  Mo  Mo1  1  1.81809000  1.81799000  -0.00099469  1
  Mo  Mo2  1  1.82741000  7.28562000  1.82385000  1
  Mo  Mo3  1  7.27719000  1.81530000  1.83062000  1
  Mo  Mo4  1  3.63314000  7.28061000  3.63166000  1
  Mo  Mo5  1  5.46776000  1.81429000  0.00163750  1
  Mo  Mo6  1  5.46758000  0.00743927  1.81981000  1
  Mo  Mo7  1  3.65337000  1.81491000  1.82072000  1
  Mo  Mo8  1  7.28222000  3.62871000  3.64063000  1
  Mo  Mo9  1  1.81515000  5.46380000  3.63692000  1
  Mo  Mo10  1  1.80871000  3.65646000  1.82157000  1
  Mo  Mo11  1  7.27420000  5.45824000  1.80661000  1
  Mo  Mo12  1  3.64657000  3.62518000  0.00907944  1
  Mo  Mo13  1  5.45302000  5.45355000  3.63550000  1
  Mo  Mo14  1  5.44871000  3.63629000  1.81721000  1
  Mo  Mo15  1  3.63790000  5.45921000  1.81308000  1
