# generated using pymatgen
data_Mo
_symmetry_space_group_name_H-M   'P 1'
_cell_length_a   7.28075024
_cell_length_b   7.28075024
_cell_length_c   3.64037514
_cell_angle_alpha   90.00000000
_cell_angle_beta   90.00000000
_cell_angle_gamma   90.00000000
_symmetry_Int_Tables_number   1
_chemical_formula_structural   Mo
_chemical_formula_sum   Mo16
_cell_volume   192.97382539
_cell_formula_units_Z   16
loop_
 _symmetry_equiv_pos_site_id
 _symmetry_equiv_pos_as_xyz
  1  'x, y, z'
loop_
 _atom_site_type_symbol
 _atom_site_label
 _atom_site_symmetry_multiplicity
 _atom_site_fract_x
 _atom_site_fract_y
 _atom_site_fract_z
 _atom_site_occupancy
  Mo  Mo0  1  -0.00954569  7.30602000  3.67826000  1
  Mo  Mo1  1  1.75907000  1.79017000  3.66424000  1
  Mo  Mo2  1  1.80545000  -0.02043570  1.81954000  1
  Mo  Mo3  1  -0.00793746  1.83841000  1.83290000  1
  Mo  Mo4  1  3.63604000  0.05234330  -0.06561120  1
  Mo  Mo5  1  5.46433000  1.83312000  3.67047000  1
  Mo  Mo6  1  5.47654000  7.29030000  1.88793000  1
  Mo  Mo7  1  3.62034000  1.78417000  1.82601000  1
  Mo  Mo8  1  7.30910000  3.62984000  3.67418000  1
  Mo  Mo9  1  1.79505000  5.38557000  3.62114000  1
  Mo  Mo10  1  1.83176000  3.68778000  1.79242000  1
  Mo  Mo11  1  -0.02391270  5.45943000  1.79682000  1
  Mo  Mo12  1  3.70148000  3.58126000  3.60965000  1
  Mo  Mo13  1  5.44697000  5.49396000  -0.04821610  1
  Mo  Mo14  1  5.47521000  3.61376000  1.78812000  1
  Mo  Mo15  1  3.66330000  5.49831000  1.84492000  1
