# generated using pymatgen
data_Mo
_symmetry_space_group_name_H-M   'P 1'
_cell_length_a   7.28075024
_cell_length_b   7.28075024
_cell_length_c   3.64037514
_cell_angle_alpha   90.00000000
_cell_angle_beta   90.00000000
_cell_angle_gamma   90.00000000
_symmetry_Int_Tables_number   1
_chemical_formula_structural   Mo
_chemical_formula_sum   Mo16
_cell_volume   192.97382539
_cell_formula_units_Z   16
loop_
 _symmetry_equiv_pos_site_id
 _symmetry_equiv_pos_as_xyz
  1  'x, y, z'
loop_
 _atom_site_type_symbol
 _atom_site_label
 _atom_site_symmetry_multiplicity
 _atom_site_fract_x
 _atom_site_fract_y
 _atom_site_fract_z
 _atom_site_occupancy
  Mo  Mo0  1  -0.01820360  7.30680000  3.59529000  1
  Mo  Mo1  1  1.81472000  1.78470000  3.66906000  1
  Mo  Mo2  1  1.79273000  -0.02927880  1.84666000  1
  Mo  Mo3  1  -0.06019650  1.86145000  1.81246000  1
  Mo  Mo4  1  3.66145000  0.00186242  0.06617150  1
  Mo  Mo5  1  5.45012000  1.77730000  3.62037000  1
  Mo  Mo6  1  5.46662000  7.32050000  1.79411000  1
  Mo  Mo7  1  3.63899000  1.83336000  1.82282000  1
  Mo  Mo8  1  7.30440000  3.61754000  3.58256000  1
  Mo  Mo9  1  1.75098000  5.47821000  3.61152000  1
  Mo  Mo10  1  1.84814000  3.61481000  1.83604000  1
  Mo  Mo11  1  -0.00059480  5.43323000  1.82015000  1
  Mo  Mo12  1  3.66219000  3.63224000  3.66231000  1
  Mo  Mo13  1  5.45351000  5.46016000  0.01422460  1
  Mo  Mo14  1  5.53202000  3.65393000  1.80833000  1
  Mo  Mo15  1  3.64636000  5.47719000  1.83065000  1
