# generated using pymatgen
data_Mo
_symmetry_space_group_name_H-M   'P 1'
_cell_length_a   7.28075024
_cell_length_b   7.28075024
_cell_length_c   3.64037514
_cell_angle_alpha   90.00000000
_cell_angle_beta   90.00000000
_cell_angle_gamma   90.00000000
_symmetry_Int_Tables_number   1
_chemical_formula_structural   Mo
_chemical_formula_sum   Mo16
_cell_volume   192.97382539
_cell_formula_units_Z   16
loop_
 _symmetry_equiv_pos_site_id
 _symmetry_equiv_pos_as_xyz
  1  'x, y, z'
loop_
 _atom_site_type_symbol
 _atom_site_label
 _atom_site_symmetry_multiplicity
 _atom_site_fract_x
 _atom_site_fract_y
 _atom_site_fract_z
 _atom_site_occupancy
  Mo  Mo0  1  0.01341390  7.30501000  3.68067000  1
  Mo  Mo1  1  1.83562000  1.78953000  3.59661000  1
  Mo  Mo2  1  1.81465000  0.00832068  1.81730000  1
  Mo  Mo3  1  -0.02378130  1.85162000  1.85898000  1
  Mo  Mo4  1  3.65731000  -0.01048970  0.02592050  1
  Mo  Mo5  1  5.45678000  1.77137000  3.68105000  1
  Mo  Mo6  1  5.53849000  7.26746000  1.83717000  1
  Mo  Mo7  1  3.59799000  1.85834000  1.77544000  1
  Mo  Mo8  1  7.25550000  3.62087000  3.60887000  1
  Mo  Mo9  1  1.76120000  5.49742000  3.63480000  1
  Mo  Mo10  1  1.84449000  3.62262000  1.79058000  1
  Mo  Mo11  1  -0.00876174  5.44859000  1.87797000  1
  Mo  Mo12  1  3.63379000  3.64322000  3.62509000  1
  Mo  Mo13  1  5.43970000  5.42521000  -0.00520964  1
  Mo  Mo14  1  5.50505000  3.67200000  1.79089000  1
  Mo  Mo15  1  3.62181000  5.45291000  1.79662000  1
