# generated using pymatgen
data_Mo
_symmetry_space_group_name_H-M   'P 1'
_cell_length_a   7.28075024
_cell_length_b   7.28075024
_cell_length_c   3.64037514
_cell_angle_alpha   90.00000000
_cell_angle_beta   90.00000000
_cell_angle_gamma   90.00000000
_symmetry_Int_Tables_number   1
_chemical_formula_structural   Mo
_chemical_formula_sum   Mo16
_cell_volume   192.97382539
_cell_formula_units_Z   16
loop_
 _symmetry_equiv_pos_site_id
 _symmetry_equiv_pos_as_xyz
  1  'x, y, z'
loop_
 _atom_site_type_symbol
 _atom_site_label
 _atom_site_symmetry_multiplicity
 _atom_site_fract_x
 _atom_site_fract_y
 _atom_site_fract_z
 _atom_site_occupancy
  Mo  Mo0  1  -0.03598000  7.26050000  3.59647000  1
  Mo  Mo1  1  1.81650000  1.83890000  3.68426000  1
  Mo  Mo2  1  1.75873000  -0.02186170  1.84617000  1
  Mo  Mo3  1  0.02623850  1.85217000  1.86523000  1
  Mo  Mo4  1  3.60592000  -0.01520080  0.09158270  1
  Mo  Mo5  1  5.49954000  1.78132000  3.60774000  1
  Mo  Mo6  1  5.45923000  7.36035000  1.75342000  1
  Mo  Mo7  1  3.61692000  1.79226000  1.84215000  1
  Mo  Mo8  1  7.25064000  3.67067000  3.59827000  1
  Mo  Mo9  1  1.87136000  5.46124000  3.60098000  1
  Mo  Mo10  1  1.83760000  3.56556000  1.83050000  1
  Mo  Mo11  1  -0.02125210  5.44187000  1.79077000  1
  Mo  Mo12  1  3.62774000  3.62187000  3.64475000  1
  Mo  Mo13  1  5.47270000  5.51108000  0.02386890  1
  Mo  Mo14  1  5.48727000  3.65120000  1.83136000  1
  Mo  Mo15  1  3.67007000  5.45207000  1.78522000  1
