# generated using pymatgen
data_Mo
_symmetry_space_group_name_H-M   'P 1'
_cell_length_a   7.28075024
_cell_length_b   7.28075024
_cell_length_c   3.64037514
_cell_angle_alpha   90.00000000
_cell_angle_beta   90.00000000
_cell_angle_gamma   90.00000000
_symmetry_Int_Tables_number   1
_chemical_formula_structural   Mo
_chemical_formula_sum   Mo16
_cell_volume   192.97382539
_cell_formula_units_Z   16
loop_
 _symmetry_equiv_pos_site_id
 _symmetry_equiv_pos_as_xyz
  1  'x, y, z'
loop_
 _atom_site_type_symbol
 _atom_site_label
 _atom_site_symmetry_multiplicity
 _atom_site_fract_x
 _atom_site_fract_y
 _atom_site_fract_z
 _atom_site_occupancy
  Mo  Mo0  1  -0.00101875  7.24482000  3.71440000  1
  Mo  Mo1  1  1.80927000  1.85337000  3.57112000  1
  Mo  Mo2  1  1.76181000  -0.02405390  1.78319000  1
  Mo  Mo3  1  -0.00429746  1.82175000  1.88941000  1
  Mo  Mo4  1  3.62784000  0.00771533  0.00641328  1
  Mo  Mo5  1  5.49562000  1.79816000  3.69668000  1
  Mo  Mo6  1  5.45093000  7.36735000  1.84681000  1
  Mo  Mo7  1  3.65127000  1.80003000  1.76395000  1
  Mo  Mo8  1  7.23869000  3.65662000  3.60464000  1
  Mo  Mo9  1  1.83924000  5.51369000  3.65120000  1
  Mo  Mo10  1  1.81049000  3.60979000  1.84057000  1
  Mo  Mo11  1  -0.01647980  5.43496000  1.86250000  1
  Mo  Mo12  1  3.64961000  3.63294000  3.61457000  1
  Mo  Mo13  1  5.48544000  5.45694000  0.01180230  1
  Mo  Mo14  1  5.46835000  3.57730000  1.81577000  1
  Mo  Mo15  1  3.67650000  5.47264000  1.71971000  1
