# generated using pymatgen
data_Mo
_symmetry_space_group_name_H-M   'P 1'
_cell_length_a   7.28075024
_cell_length_b   7.28075024
_cell_length_c   3.64037514
_cell_angle_alpha   90.00000000
_cell_angle_beta   90.00000000
_cell_angle_gamma   90.00000000
_symmetry_Int_Tables_number   1
_chemical_formula_structural   Mo
_chemical_formula_sum   Mo16
_cell_volume   192.97382539
_cell_formula_units_Z   16
loop_
 _symmetry_equiv_pos_site_id
 _symmetry_equiv_pos_as_xyz
  1  'x, y, z'
loop_
 _atom_site_type_symbol
 _atom_site_label
 _atom_site_symmetry_multiplicity
 _atom_site_fract_x
 _atom_site_fract_y
 _atom_site_fract_z
 _atom_site_occupancy
  Mo  Mo0  1  0.00405364  7.30183000  3.56893000  1
  Mo  Mo1  1  1.83216000  1.84273000  3.66158000  1
  Mo  Mo2  1  1.82530000  0.01556920  1.87790000  1
  Mo  Mo3  1  -0.01363830  1.79630000  1.79503000  1
  Mo  Mo4  1  3.61608000  -0.04955560  0.03992100  1
  Mo  Mo5  1  5.46557000  1.84551000  3.63400000  1
  Mo  Mo6  1  5.45375000  7.27271000  1.86958000  1
  Mo  Mo7  1  3.63310000  1.81546000  1.82570000  1
  Mo  Mo8  1  7.30391000  3.64366000  3.59045000  1
  Mo  Mo9  1  1.75578000  5.46656000  3.62484000  1
  Mo  Mo10  1  1.78460000  3.61109000  1.77850000  1
  Mo  Mo11  1  0.05249000  5.46307000  1.83846000  1
  Mo  Mo12  1  3.67743000  3.63783000  3.66260000  1
  Mo  Mo13  1  5.46911000  5.45512000  0.02132540  1
  Mo  Mo14  1  5.44689000  3.69361000  1.78218000  1
  Mo  Mo15  1  3.63667000  5.41251000  1.82175000  1
