# generated using pymatgen
data_Mo
_symmetry_space_group_name_H-M   'P 1'
_cell_length_a   7.28075024
_cell_length_b   7.28075024
_cell_length_c   3.64037514
_cell_angle_alpha   90.00000000
_cell_angle_beta   90.00000000
_cell_angle_gamma   90.00000000
_symmetry_Int_Tables_number   1
_chemical_formula_structural   Mo
_chemical_formula_sum   Mo16
_cell_volume   192.97382539
_cell_formula_units_Z   16
loop_
 _symmetry_equiv_pos_site_id
 _symmetry_equiv_pos_as_xyz
  1  'x, y, z'
loop_
 _atom_site_type_symbol
 _atom_site_label
 _atom_site_symmetry_multiplicity
 _atom_site_fract_x
 _atom_site_fract_y
 _atom_site_fract_z
 _atom_site_occupancy
  Mo  Mo0  1  0.02051580  7.24251000  3.59465000  1
  Mo  Mo1  1  1.83314000  1.83773000  3.58875000  1
  Mo  Mo2  1  1.77965000  -0.02257590  1.79049000  1
  Mo  Mo3  1  0.04208510  1.84290000  1.81564000  1
  Mo  Mo4  1  3.59170000  0.00406182  0.05571440  1
  Mo  Mo5  1  5.47363000  1.76379000  3.63655000  1
  Mo  Mo6  1  5.48237000  7.32430000  1.77351000  1
  Mo  Mo7  1  3.65991000  1.81354000  1.85824000  1
  Mo  Mo8  1  7.21034000  3.67543000  3.54539000  1
  Mo  Mo9  1  1.86591000  5.49293000  3.70434000  1
  Mo  Mo10  1  1.82420000  3.63032000  1.89943000  1
  Mo  Mo11  1  0.02718180  5.42905000  1.81032000  1
  Mo  Mo12  1  3.62286000  3.62980000  3.72141000  1
  Mo  Mo13  1  5.43178000  5.46358000  -0.04468010  1
  Mo  Mo14  1  5.44190000  3.65400000  1.79840000  1
  Mo  Mo15  1  3.63607000  5.44263000  1.84460000  1
