# generated using pymatgen
data_Mo
_symmetry_space_group_name_H-M   'P 1'
_cell_length_a   7.28075024
_cell_length_b   7.28075024
_cell_length_c   3.64037514
_cell_angle_alpha   90.00000000
_cell_angle_beta   90.00000000
_cell_angle_gamma   90.00000000
_symmetry_Int_Tables_number   1
_chemical_formula_structural   Mo
_chemical_formula_sum   Mo16
_cell_volume   192.97382539
_cell_formula_units_Z   16
loop_
 _symmetry_equiv_pos_site_id
 _symmetry_equiv_pos_as_xyz
  1  'x, y, z'
loop_
 _atom_site_type_symbol
 _atom_site_label
 _atom_site_symmetry_multiplicity
 _atom_site_fract_x
 _atom_site_fract_y
 _atom_site_fract_z
 _atom_site_occupancy
  Mo  Mo0  1  -0.02887100  7.28771000  3.65158000  1
  Mo  Mo1  1  1.80962000  1.78097000  3.64173000  1
  Mo  Mo2  1  1.80024000  -0.01852160  1.82369000  1
  Mo  Mo3  1  0.00510524  1.78530000  1.82226000  1
  Mo  Mo4  1  3.63699000  0.00476169  -0.09433080  1
  Mo  Mo5  1  5.48853000  1.84461000  3.66009000  1
  Mo  Mo6  1  5.49815000  7.28777000  1.77166000  1
  Mo  Mo7  1  3.66161000  1.79189000  1.84553000  1
  Mo  Mo8  1  7.33005000  3.72023000  3.67263000  1
  Mo  Mo9  1  1.84650000  5.48212000  3.66765000  1
  Mo  Mo10  1  1.76002000  3.64755000  1.90303000  1
  Mo  Mo11  1  -0.03035030  5.42992000  1.78567000  1
  Mo  Mo12  1  3.63815000  3.60103000  3.63203000  1
  Mo  Mo13  1  5.49242000  5.43843000  -0.02185440  1
  Mo  Mo14  1  5.42175000  3.63750000  1.84682000  1
  Mo  Mo15  1  3.61334000  5.50272000  1.78456000  1
