# generated using pymatgen
data_Mo
_symmetry_space_group_name_H-M   'P 1'
_cell_length_a   7.28075024
_cell_length_b   7.28075024
_cell_length_c   3.64037514
_cell_angle_alpha   90.00000000
_cell_angle_beta   90.00000000
_cell_angle_gamma   90.00000000
_symmetry_Int_Tables_number   1
_chemical_formula_structural   Mo
_chemical_formula_sum   Mo16
_cell_volume   192.97382539
_cell_formula_units_Z   16
loop_
 _symmetry_equiv_pos_site_id
 _symmetry_equiv_pos_as_xyz
  1  'x, y, z'
loop_
 _atom_site_type_symbol
 _atom_site_label
 _atom_site_symmetry_multiplicity
 _atom_site_fract_x
 _atom_site_fract_y
 _atom_site_fract_z
 _atom_site_occupancy
  Mo  Mo0  1  -0.00512370  7.21703000  3.64497000  1
  Mo  Mo1  1  1.76271000  1.78397000  3.68801000  1
  Mo  Mo2  1  1.81039000  -0.01706290  1.77777000  1
  Mo  Mo3  1  -0.02085790  1.87820000  1.90166000  1
  Mo  Mo4  1  3.71409000  0.04110240  -0.03247080  1
  Mo  Mo5  1  5.47446000  1.80773000  3.61768000  1
  Mo  Mo6  1  5.47771000  7.26961000  1.80127000  1
  Mo  Mo7  1  3.62523000  1.78159000  1.76561000  1
  Mo  Mo8  1  7.25827000  3.63840000  3.67014000  1
  Mo  Mo9  1  1.77015000  5.50229000  3.63382000  1
  Mo  Mo10  1  1.84013000  3.66889000  1.85274000  1
  Mo  Mo11  1  0.05065920  5.46845000  1.85119000  1
  Mo  Mo12  1  3.59068000  3.63188000  3.68918000  1
  Mo  Mo13  1  5.44184000  5.44569000  -0.05904070  1
  Mo  Mo14  1  5.49721000  3.63495000  1.78665000  1
  Mo  Mo15  1  3.65569000  5.47129000  1.80357000  1
