# generated using pymatgen
data_Mo
_symmetry_space_group_name_H-M   'P 1'
_cell_length_a   7.27808089
_cell_length_b   7.27808089
_cell_length_c   3.63904047
_cell_angle_alpha   90.00000000
_cell_angle_beta   90.00000000
_cell_angle_gamma   90.00000000
_symmetry_Int_Tables_number   1
_chemical_formula_structural   Mo
_chemical_formula_sum   Mo16
_cell_volume   192.76165285
_cell_formula_units_Z   16
loop_
 _symmetry_equiv_pos_site_id
 _symmetry_equiv_pos_as_xyz
  1  'x, y, z'
loop_
 _atom_site_type_symbol
 _atom_site_label
 _atom_site_symmetry_multiplicity
 _atom_site_fract_x
 _atom_site_fract_y
 _atom_site_fract_z
 _atom_site_occupancy
  Mo  Mo0  1  -0.00160664  7.27404000  -0.00710214  1
  Mo  Mo1  1  1.82879000  1.82178000  0.00375781  1
  Mo  Mo2  1  1.83020000  7.28033000  1.81848000  1
  Mo  Mo3  1  7.28025000  1.82846000  1.82060000  1
  Mo  Mo4  1  3.63099000  7.27414000  3.63364000  1
  Mo  Mo5  1  5.45942000  1.81096000  0.00789546  1
  Mo  Mo6  1  5.47149000  -0.01692610  1.82448000  1
  Mo  Mo7  1  3.63522000  1.83133000  1.82938000  1
  Mo  Mo8  1  7.29282000  3.65122000  3.64558000  1
  Mo  Mo9  1  1.82223000  5.45547000  3.63880000  1
  Mo  Mo10  1  1.80483000  3.63270000  1.82459000  1
  Mo  Mo11  1  7.26761000  5.46687000  1.81998000  1
  Mo  Mo12  1  3.64404000  3.64870000  -0.00337739  1
  Mo  Mo13  1  5.44355000  5.45132000  3.63777000  1
  Mo  Mo14  1  5.45912000  3.63300000  1.80873000  1
  Mo  Mo15  1  3.63314000  5.45869000  1.80880000  1
