# generated using pymatgen
data_Mo
_symmetry_space_group_name_H-M   'P 1'
_cell_length_a   7.28075024
_cell_length_b   7.28075024
_cell_length_c   3.64037514
_cell_angle_alpha   90.00000000
_cell_angle_beta   90.00000000
_cell_angle_gamma   90.00000000
_symmetry_Int_Tables_number   1
_chemical_formula_structural   Mo
_chemical_formula_sum   Mo16
_cell_volume   192.97382539
_cell_formula_units_Z   16
loop_
 _symmetry_equiv_pos_site_id
 _symmetry_equiv_pos_as_xyz
  1  'x, y, z'
loop_
 _atom_site_type_symbol
 _atom_site_label
 _atom_site_symmetry_multiplicity
 _atom_site_fract_x
 _atom_site_fract_y
 _atom_site_fract_z
 _atom_site_occupancy
  Mo  Mo0  1  -0.00875007  7.27270000  3.69659000  1
  Mo  Mo1  1  1.79924000  1.79432000  3.59045000  1
  Mo  Mo2  1  1.81316000  0.02906300  1.82753000  1
  Mo  Mo3  1  0.02858780  1.79471000  1.76703000  1
  Mo  Mo4  1  3.61117000  -0.06522030  0.04131390  1
  Mo  Mo5  1  5.46862000  1.81108000  3.63437000  1
  Mo  Mo6  1  5.49729000  7.30861000  1.83985000  1
  Mo  Mo7  1  3.67783000  1.86089000  1.85493000  1
  Mo  Mo8  1  7.27502000  3.62269000  3.61429000  1
  Mo  Mo9  1  1.81100000  5.50005000  3.63943000  1
  Mo  Mo10  1  1.82621000  3.62145000  1.77420000  1
  Mo  Mo11  1  -0.05649300  5.42765000  1.83559000  1
  Mo  Mo12  1  3.59320000  3.64184000  3.62475000  1
  Mo  Mo13  1  5.47210000  5.49936000  0.01637910  1
  Mo  Mo14  1  5.49399000  3.65177000  1.79679000  1
  Mo  Mo15  1  3.64106000  5.45304000  1.83925000  1
