# generated using pymatgen
data_Mo
_symmetry_space_group_name_H-M   'P 1'
_cell_length_a   7.28075024
_cell_length_b   7.28075024
_cell_length_c   3.64037514
_cell_angle_alpha   90.00000000
_cell_angle_beta   90.00000000
_cell_angle_gamma   90.00000000
_symmetry_Int_Tables_number   1
_chemical_formula_structural   Mo
_chemical_formula_sum   Mo16
_cell_volume   192.97382539
_cell_formula_units_Z   16
loop_
 _symmetry_equiv_pos_site_id
 _symmetry_equiv_pos_as_xyz
  1  'x, y, z'
loop_
 _atom_site_type_symbol
 _atom_site_label
 _atom_site_symmetry_multiplicity
 _atom_site_fract_x
 _atom_site_fract_y
 _atom_site_fract_z
 _atom_site_occupancy
  Mo  Mo0  1  0.00137368  7.30606000  3.68308000  1
  Mo  Mo1  1  1.83334000  1.79490000  3.63469000  1
  Mo  Mo2  1  1.83230000  0.04282770  1.82407000  1
  Mo  Mo3  1  -0.04086740  1.84141000  1.80350000  1
  Mo  Mo4  1  3.62944000  -0.03286210  0.00908421  1
  Mo  Mo5  1  5.45532000  1.79821000  3.64803000  1
  Mo  Mo6  1  5.39338000  7.26792000  1.89034000  1
  Mo  Mo7  1  3.73396000  1.80683000  1.79495000  1
  Mo  Mo8  1  7.29540000  3.64149000  3.59680000  1
  Mo  Mo9  1  1.84486000  5.46021000  3.66980000  1
  Mo  Mo10  1  1.82185000  3.61983000  1.83755000  1
  Mo  Mo11  1  -0.01314610  5.44231000  1.72554000  1
  Mo  Mo12  1  3.60456000  3.67796000  3.58695000  1
  Mo  Mo13  1  5.51497000  5.50452000  0.03093360  1
  Mo  Mo14  1  5.41936000  3.62625000  1.80406000  1
  Mo  Mo15  1  3.61716000  5.42613000  1.85337000  1
