# generated using pymatgen
data_Mo
_symmetry_space_group_name_H-M   'P 1'
_cell_length_a   7.28075024
_cell_length_b   7.28075024
_cell_length_c   3.64037514
_cell_angle_alpha   90.00000000
_cell_angle_beta   90.00000000
_cell_angle_gamma   90.00000000
_symmetry_Int_Tables_number   1
_chemical_formula_structural   Mo
_chemical_formula_sum   Mo16
_cell_volume   192.97382539
_cell_formula_units_Z   16
loop_
 _symmetry_equiv_pos_site_id
 _symmetry_equiv_pos_as_xyz
  1  'x, y, z'
loop_
 _atom_site_type_symbol
 _atom_site_label
 _atom_site_symmetry_multiplicity
 _atom_site_fract_x
 _atom_site_fract_y
 _atom_site_fract_z
 _atom_site_occupancy
  Mo  Mo0  1  -0.01433500  7.27568000  3.60640000  1
  Mo  Mo1  1  1.85379000  1.82630000  3.65039000  1
  Mo  Mo2  1  1.81570000  -0.02905310  1.84952000  1
  Mo  Mo3  1  0.00759835  1.81752000  1.85998000  1
  Mo  Mo4  1  3.59504000  -0.04053310  -0.03369930  1
  Mo  Mo5  1  5.48634000  1.83960000  3.65073000  1
  Mo  Mo6  1  5.47736000  7.31202000  1.80201000  1
  Mo  Mo7  1  3.63865000  1.84645000  1.78736000  1
  Mo  Mo8  1  7.30621000  3.65198000  3.67114000  1
  Mo  Mo9  1  1.84251000  5.41616000  3.65590000  1
  Mo  Mo10  1  1.76634000  3.64817000  1.82173000  1
  Mo  Mo11  1  -0.03489660  5.45037000  1.81000000  1
  Mo  Mo12  1  3.63858000  3.65754000  3.70682000  1
  Mo  Mo13  1  5.45588000  5.46433000  -0.01771790  1
  Mo  Mo14  1  5.43717000  3.62129000  1.79390000  1
  Mo  Mo15  1  3.67134000  5.46617000  1.77829000  1
