# generated using pymatgen
data_Mo
_symmetry_space_group_name_H-M   'P 1'
_cell_length_a   7.28075024
_cell_length_b   7.28075024
_cell_length_c   3.64037514
_cell_angle_alpha   90.00000000
_cell_angle_beta   90.00000000
_cell_angle_gamma   90.00000000
_symmetry_Int_Tables_number   1
_chemical_formula_structural   Mo
_chemical_formula_sum   Mo16
_cell_volume   192.97382539
_cell_formula_units_Z   16
loop_
 _symmetry_equiv_pos_site_id
 _symmetry_equiv_pos_as_xyz
  1  'x, y, z'
loop_
 _atom_site_type_symbol
 _atom_site_label
 _atom_site_symmetry_multiplicity
 _atom_site_fract_x
 _atom_site_fract_y
 _atom_site_fract_z
 _atom_site_occupancy
  Mo  Mo0  1  0.03577250  7.20745000  3.63961000  1
  Mo  Mo1  1  1.81944000  1.82278000  3.71135000  1
  Mo  Mo2  1  1.76751000  0.05097880  1.79375000  1
  Mo  Mo3  1  -0.02082740  1.83144000  1.88591000  1
  Mo  Mo4  1  3.68384000  -0.00418691  -0.06309690  1
  Mo  Mo5  1  5.49121000  1.87713000  3.62396000  1
  Mo  Mo6  1  5.46239000  7.33579000  1.80534000  1
  Mo  Mo7  1  3.65052000  1.77462000  1.75220000  1
  Mo  Mo8  1  7.28782000  3.61730000  3.66114000  1
  Mo  Mo9  1  1.86808000  5.47162000  3.62305000  1
  Mo  Mo10  1  1.85452000  3.63597000  1.88154000  1
  Mo  Mo11  1  -0.02886400  5.45409000  1.83483000  1
  Mo  Mo12  1  3.55394000  3.64906000  3.67676000  1
  Mo  Mo13  1  5.39101000  5.42373000  -0.04290260  1
  Mo  Mo14  1  5.43919000  3.64761000  1.82415000  1
  Mo  Mo15  1  3.68768000  5.42862000  1.78515000  1
