# generated using pymatgen
data_Mo
_symmetry_space_group_name_H-M   'P 1'
_cell_length_a   7.28075024
_cell_length_b   7.28075024
_cell_length_c   3.64037514
_cell_angle_alpha   90.00000000
_cell_angle_beta   90.00000000
_cell_angle_gamma   90.00000000
_symmetry_Int_Tables_number   1
_chemical_formula_structural   Mo
_chemical_formula_sum   Mo16
_cell_volume   192.97382539
_cell_formula_units_Z   16
loop_
 _symmetry_equiv_pos_site_id
 _symmetry_equiv_pos_as_xyz
  1  'x, y, z'
loop_
 _atom_site_type_symbol
 _atom_site_label
 _atom_site_symmetry_multiplicity
 _atom_site_fract_x
 _atom_site_fract_y
 _atom_site_fract_z
 _atom_site_occupancy
  Mo  Mo0  1  0.02099260  7.30581000  3.71069000  1
  Mo  Mo1  1  1.82928000  1.84581000  3.60760000  1
  Mo  Mo2  1  1.84146000  0.00838271  1.77900000  1
  Mo  Mo3  1  0.00469142  1.82279000  1.79684000  1
  Mo  Mo4  1  3.68676000  0.00160124  0.00325383  1
  Mo  Mo5  1  5.37425000  1.79461000  3.63938000  1
  Mo  Mo6  1  5.42823000  7.26575000  1.76124000  1
  Mo  Mo7  1  3.66609000  1.83815000  1.87763000  1
  Mo  Mo8  1  7.25523000  3.61791000  3.67564000  1
  Mo  Mo9  1  1.83031000  5.39161000  3.63125000  1
  Mo  Mo10  1  1.81365000  3.66998000  1.81075000  1
  Mo  Mo11  1  0.02511280  5.47841000  1.86134000  1
  Mo  Mo12  1  3.61934000  3.68208000  3.58398000  1
  Mo  Mo13  1  5.44396000  5.41688000  -0.02080100  1
  Mo  Mo14  1  5.50073000  3.62296000  1.86884000  1
  Mo  Mo15  1  3.60318000  5.46127000  1.80611000  1
