# generated using pymatgen
data_Mo
_symmetry_space_group_name_H-M   'P 1'
_cell_length_a   7.28075024
_cell_length_b   7.28075024
_cell_length_c   3.64037514
_cell_angle_alpha   90.00000000
_cell_angle_beta   90.00000000
_cell_angle_gamma   90.00000000
_symmetry_Int_Tables_number   1
_chemical_formula_structural   Mo
_chemical_formula_sum   Mo16
_cell_volume   192.97382539
_cell_formula_units_Z   16
loop_
 _symmetry_equiv_pos_site_id
 _symmetry_equiv_pos_as_xyz
  1  'x, y, z'
loop_
 _atom_site_type_symbol
 _atom_site_label
 _atom_site_symmetry_multiplicity
 _atom_site_fract_x
 _atom_site_fract_y
 _atom_site_fract_z
 _atom_site_occupancy
  Mo  Mo0  1  0.00035174  7.29255000  3.66840000  1
  Mo  Mo1  1  1.81764000  1.78992000  3.62797000  1
  Mo  Mo2  1  1.79477000  -0.01037750  1.83029000  1
  Mo  Mo3  1  -0.02854990  1.85552000  1.75036000  1
  Mo  Mo4  1  3.61797000  -0.02287960  0.03720740  1
  Mo  Mo5  1  5.44816000  1.81516000  3.62159000  1
  Mo  Mo6  1  5.43578000  7.25640000  1.77200000  1
  Mo  Mo7  1  3.68939000  1.84733000  1.89358000  1
  Mo  Mo8  1  7.28665000  3.62177000  3.63276000  1
  Mo  Mo9  1  1.82090000  5.42641000  3.66047000  1
  Mo  Mo10  1  1.81803000  3.61639000  1.82158000  1
  Mo  Mo11  1  -0.00290260  5.47973000  1.80424000  1
  Mo  Mo12  1  3.60685000  3.66454000  3.60984000  1
  Mo  Mo13  1  5.51771000  5.49110000  -0.01434130  1
  Mo  Mo14  1  5.53425000  3.64945000  1.85861000  1
  Mo  Mo15  1  3.58625000  5.45099000  1.81819000  1
