# generated using pymatgen
data_Mo
_symmetry_space_group_name_H-M   'P 1'
_cell_length_a   7.28075024
_cell_length_b   7.28075024
_cell_length_c   3.64037514
_cell_angle_alpha   90.00000000
_cell_angle_beta   90.00000000
_cell_angle_gamma   90.00000000
_symmetry_Int_Tables_number   1
_chemical_formula_structural   Mo
_chemical_formula_sum   Mo16
_cell_volume   192.97382539
_cell_formula_units_Z   16
loop_
 _symmetry_equiv_pos_site_id
 _symmetry_equiv_pos_as_xyz
  1  'x, y, z'
loop_
 _atom_site_type_symbol
 _atom_site_label
 _atom_site_symmetry_multiplicity
 _atom_site_fract_x
 _atom_site_fract_y
 _atom_site_fract_z
 _atom_site_occupancy
  Mo  Mo0  1  -0.04847840  7.33095000  3.61759000  1
  Mo  Mo1  1  1.79115000  1.76959000  3.62350000  1
  Mo  Mo2  1  1.78691000  -0.01939450  1.83019000  1
  Mo  Mo3  1  0.04392700  1.79404000  1.77758000  1
  Mo  Mo4  1  3.63382000  0.00802598  0.00616773  1
  Mo  Mo5  1  5.50289000  1.84458000  3.64150000  1
  Mo  Mo6  1  5.47929000  7.26655000  1.83035000  1
  Mo  Mo7  1  3.64250000  1.82498000  1.85384000  1
  Mo  Mo8  1  7.35830000  3.68132000  3.63323000  1
  Mo  Mo9  1  1.86288000  5.47234000  3.62611000  1
  Mo  Mo10  1  1.80843000  3.61460000  1.83040000  1
  Mo  Mo11  1  -0.03049130  5.43895000  1.75890000  1
  Mo  Mo12  1  3.66550000  3.60789000  3.60598000  1
  Mo  Mo13  1  5.43548000  5.44597000  0.06553310  1
  Mo  Mo14  1  5.40081000  3.64850000  1.84186000  1
  Mo  Mo15  1  3.61031000  5.49511000  1.85002000  1
