# generated using pymatgen
data_Mo
_symmetry_space_group_name_H-M   'P 1'
_cell_length_a   7.28075024
_cell_length_b   7.28075024
_cell_length_c   3.64037514
_cell_angle_alpha   90.00000000
_cell_angle_beta   90.00000000
_cell_angle_gamma   90.00000000
_symmetry_Int_Tables_number   1
_chemical_formula_structural   Mo
_chemical_formula_sum   Mo16
_cell_volume   192.97382539
_cell_formula_units_Z   16
loop_
 _symmetry_equiv_pos_site_id
 _symmetry_equiv_pos_as_xyz
  1  'x, y, z'
loop_
 _atom_site_type_symbol
 _atom_site_label
 _atom_site_symmetry_multiplicity
 _atom_site_fract_x
 _atom_site_fract_y
 _atom_site_fract_z
 _atom_site_occupancy
  Mo  Mo0  1  0.04576750  7.31341000  3.65241000  1
  Mo  Mo1  1  1.83827000  1.81123000  3.63583000  1
  Mo  Mo2  1  1.88787000  -0.03498700  1.80241000  1
  Mo  Mo3  1  -0.00045473  1.82147000  1.75781000  1
  Mo  Mo4  1  3.65673000  -0.02483710  0.02328370  1
  Mo  Mo5  1  5.41117000  1.79809000  3.62552000  1
  Mo  Mo6  1  5.40409000  7.29450000  1.85485000  1
  Mo  Mo7  1  3.64379000  1.87054000  1.84535000  1
  Mo  Mo8  1  7.25737000  3.64554000  3.61823000  1
  Mo  Mo9  1  1.75954000  5.42740000  3.66318000  1
  Mo  Mo10  1  1.88430000  3.64460000  1.81083000  1
  Mo  Mo11  1  -0.04654280  5.45833000  1.83329000  1
  Mo  Mo12  1  3.64109000  3.63863000  3.61449000  1
  Mo  Mo13  1  5.49554000  5.44442000  0.00975279  1
  Mo  Mo14  1  5.50135000  3.63940000  1.82034000  1
  Mo  Mo15  1  3.56338000  5.47627000  1.82519000  1
