# generated using pymatgen
data_Mo
_symmetry_space_group_name_H-M   'P 1'
_cell_length_a   7.28075024
_cell_length_b   7.28075024
_cell_length_c   3.64037514
_cell_angle_alpha   90.00000000
_cell_angle_beta   90.00000000
_cell_angle_gamma   90.00000000
_symmetry_Int_Tables_number   1
_chemical_formula_structural   Mo
_chemical_formula_sum   Mo16
_cell_volume   192.97382539
_cell_formula_units_Z   16
loop_
 _symmetry_equiv_pos_site_id
 _symmetry_equiv_pos_as_xyz
  1  'x, y, z'
loop_
 _atom_site_type_symbol
 _atom_site_label
 _atom_site_symmetry_multiplicity
 _atom_site_fract_x
 _atom_site_fract_y
 _atom_site_fract_z
 _atom_site_occupancy
  Mo  Mo0  1  0.00023722  7.27769000  3.68917000  1
  Mo  Mo1  1  1.78976000  1.83197000  3.68844000  1
  Mo  Mo2  1  1.82484000  -0.06887360  1.75303000  1
  Mo  Mo3  1  0.04048020  1.81988000  1.86981000  1
  Mo  Mo4  1  3.68633000  0.02372410  -0.07040720  1
  Mo  Mo5  1  5.45373000  1.81466000  3.61256000  1
  Mo  Mo6  1  5.43873000  7.31082000  1.76546000  1
  Mo  Mo7  1  3.63407000  1.81457000  1.80903000  1
  Mo  Mo8  1  7.25469000  3.61832000  3.66420000  1
  Mo  Mo9  1  1.76693000  5.41439000  3.61610000  1
  Mo  Mo10  1  1.84375000  3.67868000  1.89908000  1
  Mo  Mo11  1  -0.01203820  5.43882000  1.80023000  1
  Mo  Mo12  1  3.64242000  3.67351000  3.61773000  1
  Mo  Mo13  1  5.44362000  5.47579000  -0.02178680  1
  Mo  Mo14  1  5.52005000  3.64822000  1.85296000  1
  Mo  Mo15  1  3.61566000  5.45184000  1.84714000  1
