# generated using pymatgen
data_Mo
_symmetry_space_group_name_H-M   'P 1'
_cell_length_a   7.28075024
_cell_length_b   7.28075024
_cell_length_c   3.64037514
_cell_angle_alpha   90.00000000
_cell_angle_beta   90.00000000
_cell_angle_gamma   90.00000000
_symmetry_Int_Tables_number   1
_chemical_formula_structural   Mo
_chemical_formula_sum   Mo16
_cell_volume   192.97382539
_cell_formula_units_Z   16
loop_
 _symmetry_equiv_pos_site_id
 _symmetry_equiv_pos_as_xyz
  1  'x, y, z'
loop_
 _atom_site_type_symbol
 _atom_site_label
 _atom_site_symmetry_multiplicity
 _atom_site_fract_x
 _atom_site_fract_y
 _atom_site_fract_z
 _atom_site_occupancy
  Mo  Mo0  1  -0.04147230  7.28323000  3.69212000  1
  Mo  Mo1  1  1.82552000  1.76675000  3.63868000  1
  Mo  Mo2  1  1.78796000  -0.02650510  1.79400000  1
  Mo  Mo3  1  0.09559430  1.86332000  1.85191000  1
  Mo  Mo4  1  3.61389000  -0.01411610  -0.03646350  1
  Mo  Mo5  1  5.39663000  1.82775000  3.64145000  1
  Mo  Mo6  1  5.48447000  7.24969000  1.87628000  1
  Mo  Mo7  1  3.59356000  1.85464000  1.83351000  1
  Mo  Mo8  1  7.31053000  3.61568000  3.66418000  1
  Mo  Mo9  1  1.84624000  5.44964000  3.63786000  1
  Mo  Mo10  1  1.82823000  3.69401000  1.77767000  1
  Mo  Mo11  1  0.01595550  5.43133000  1.79458000  1
  Mo  Mo12  1  3.66818000  3.64640000  3.63350000  1
  Mo  Mo13  1  5.40711000  5.49814000  -0.04675590  1
  Mo  Mo14  1  5.45072000  3.63595000  1.75774000  1
  Mo  Mo15  1  3.66014000  5.44811000  1.88249000  1
