# generated using pymatgen
data_Mo
_symmetry_space_group_name_H-M   'P 1'
_cell_length_a   7.27808089
_cell_length_b   7.27808089
_cell_length_c   3.63904047
_cell_angle_alpha   90.00000000
_cell_angle_beta   90.00000000
_cell_angle_gamma   90.00000000
_symmetry_Int_Tables_number   1
_chemical_formula_structural   Mo
_chemical_formula_sum   Mo16
_cell_volume   192.76165285
_cell_formula_units_Z   16
loop_
 _symmetry_equiv_pos_site_id
 _symmetry_equiv_pos_as_xyz
  1  'x, y, z'
loop_
 _atom_site_type_symbol
 _atom_site_label
 _atom_site_symmetry_multiplicity
 _atom_site_fract_x
 _atom_site_fract_y
 _atom_site_fract_z
 _atom_site_occupancy
  Mo  Mo0  1  -0.00604380  7.26761000  -0.00587311  1
  Mo  Mo1  1  1.82423000  1.82587000  -0.00148936  1
  Mo  Mo2  1  1.82999000  7.29409000  1.81840000  1
  Mo  Mo3  1  7.27992000  1.82642000  1.81286000  1
  Mo  Mo4  1  3.63932000  7.26868000  3.63165000  1
  Mo  Mo5  1  5.46499000  1.81292000  0.00838126  1
  Mo  Mo6  1  5.46546000  -0.00388459  1.82840000  1
  Mo  Mo7  1  3.63814000  1.82080000  1.82397000  1
  Mo  Mo8  1  7.27403000  3.63219000  3.64342000  1
  Mo  Mo9  1  1.81438000  5.46116000  3.63721000  1
  Mo  Mo10  1  1.80995000  3.63749000  1.82942000  1
  Mo  Mo11  1  7.27452000  5.46627000  1.81620000  1
  Mo  Mo12  1  3.64519000  3.64054000  0.00829622  1
  Mo  Mo13  1  5.45384000  5.45432000  3.62967000  1
  Mo  Mo14  1  5.45386000  3.63791000  1.81076000  1
  Mo  Mo15  1  3.64028000  5.45970000  1.82071000  1
