# generated using pymatgen
data_Mo
_symmetry_space_group_name_H-M   'P 1'
_cell_length_a   7.28075024
_cell_length_b   7.28075024
_cell_length_c   3.64037514
_cell_angle_alpha   90.00000000
_cell_angle_beta   90.00000000
_cell_angle_gamma   90.00000000
_symmetry_Int_Tables_number   1
_chemical_formula_structural   Mo
_chemical_formula_sum   Mo16
_cell_volume   192.97382539
_cell_formula_units_Z   16
loop_
 _symmetry_equiv_pos_site_id
 _symmetry_equiv_pos_as_xyz
  1  'x, y, z'
loop_
 _atom_site_type_symbol
 _atom_site_label
 _atom_site_symmetry_multiplicity
 _atom_site_fract_x
 _atom_site_fract_y
 _atom_site_fract_z
 _atom_site_occupancy
  Mo  Mo0  1  -0.03044330  7.28526000  3.58208000  1
  Mo  Mo1  1  1.89031000  1.83275000  3.66544000  1
  Mo  Mo2  1  1.81607000  -0.02911060  1.83101000  1
  Mo  Mo3  1  -0.04540560  1.80269000  1.81716000  1
  Mo  Mo4  1  3.63716000  0.02391860  -0.03630890  1
  Mo  Mo5  1  5.47043000  1.84739000  3.66414000  1
  Mo  Mo6  1  5.45071000  7.28021000  1.77224000  1
  Mo  Mo7  1  3.62652000  1.76453000  1.83992000  1
  Mo  Mo8  1  7.26837000  3.63825000  3.63595000  1
  Mo  Mo9  1  1.79659000  5.43624000  3.61452000  1
  Mo  Mo10  1  1.76133000  3.64872000  1.81699000  1
  Mo  Mo11  1  0.01883860  5.50468000  1.80482000  1
  Mo  Mo12  1  3.66487000  3.65645000  3.70089000  1
  Mo  Mo13  1  5.50388000  5.45136000  0.00363262  1
  Mo  Mo14  1  5.47542000  3.62269000  1.88948000  1
  Mo  Mo15  1  3.63861000  5.45797000  1.79078000  1
