# generated using pymatgen
data_Mo
_symmetry_space_group_name_H-M   'P 1'
_cell_length_a   7.28075024
_cell_length_b   7.28075024
_cell_length_c   3.64037514
_cell_angle_alpha   90.00000000
_cell_angle_beta   90.00000000
_cell_angle_gamma   90.00000000
_symmetry_Int_Tables_number   1
_chemical_formula_structural   Mo
_chemical_formula_sum   Mo16
_cell_volume   192.97382539
_cell_formula_units_Z   16
loop_
 _symmetry_equiv_pos_site_id
 _symmetry_equiv_pos_as_xyz
  1  'x, y, z'
loop_
 _atom_site_type_symbol
 _atom_site_label
 _atom_site_symmetry_multiplicity
 _atom_site_fract_x
 _atom_site_fract_y
 _atom_site_fract_z
 _atom_site_occupancy
  Mo  Mo0  1  0.02640380  7.26674000  3.68952000  1
  Mo  Mo1  1  1.81157000  1.85736000  3.66793000  1
  Mo  Mo2  1  1.83931000  -0.02282150  1.79522000  1
  Mo  Mo3  1  0.00052872  1.87763000  1.77746000  1
  Mo  Mo4  1  3.66777000  0.01034810  0.04076490  1
  Mo  Mo5  1  5.44036000  1.80886000  3.63436000  1
  Mo  Mo6  1  5.41191000  7.30166000  1.86777000  1
  Mo  Mo7  1  3.58976000  1.80455000  1.79863000  1
  Mo  Mo8  1  7.26764000  3.61771000  3.55439000  1
  Mo  Mo9  1  1.82421000  5.50090000  3.62930000  1
  Mo  Mo10  1  1.87004000  3.67008000  1.80650000  1
  Mo  Mo11  1  -0.01140860  5.43771000  1.77094000  1
  Mo  Mo12  1  3.61314000  3.60933000  3.61194000  1
  Mo  Mo13  1  5.47613000  5.47334000  0.05540870  1
  Mo  Mo14  1  5.46342000  3.58781000  1.81136000  1
  Mo  Mo15  1  3.65247000  5.42278000  1.88127000  1
