# generated using pymatgen
data_Mo
_symmetry_space_group_name_H-M   'P 1'
_cell_length_a   7.28075024
_cell_length_b   7.28075024
_cell_length_c   3.64037514
_cell_angle_alpha   90.00000000
_cell_angle_beta   90.00000000
_cell_angle_gamma   90.00000000
_symmetry_Int_Tables_number   1
_chemical_formula_structural   Mo
_chemical_formula_sum   Mo16
_cell_volume   192.97382539
_cell_formula_units_Z   16
loop_
 _symmetry_equiv_pos_site_id
 _symmetry_equiv_pos_as_xyz
  1  'x, y, z'
loop_
 _atom_site_type_symbol
 _atom_site_label
 _atom_site_symmetry_multiplicity
 _atom_site_fract_x
 _atom_site_fract_y
 _atom_site_fract_z
 _atom_site_occupancy
  Mo  Mo0  1  -0.01490320  7.27783000  3.57067000  1
  Mo  Mo1  1  1.93343000  1.83045000  3.58408000  1
  Mo  Mo2  1  1.81047000  -0.00821144  1.76935000  1
  Mo  Mo3  1  0.03866810  1.80166000  1.80371000  1
  Mo  Mo4  1  3.57116000  -0.02188320  0.04831570  1
  Mo  Mo5  1  5.44265000  1.85512000  3.67213000  1
  Mo  Mo6  1  5.46404000  7.29384000  1.85715000  1
  Mo  Mo7  1  3.67287000  1.82562000  1.84915000  1
  Mo  Mo8  1  7.28164000  3.59399000  3.63658000  1
  Mo  Mo9  1  1.79180000  5.44693000  3.60407000  1
  Mo  Mo10  1  1.74916000  3.63628000  1.84109000  1
  Mo  Mo11  1  0.02263420  5.47016000  1.80250000  1
  Mo  Mo12  1  3.64941000  3.68528000  3.67999000  1
  Mo  Mo13  1  5.43104000  5.50321000  0.02497920  1
  Mo  Mo14  1  5.43304000  3.64498000  1.79947000  1
  Mo  Mo15  1  3.66612000  5.38875000  1.84953000  1
