# generated using pymatgen
data_Mo
_symmetry_space_group_name_H-M   'P 1'
_cell_length_a   7.28075024
_cell_length_b   7.28075024
_cell_length_c   3.64037514
_cell_angle_alpha   90.00000000
_cell_angle_beta   90.00000000
_cell_angle_gamma   90.00000000
_symmetry_Int_Tables_number   1
_chemical_formula_structural   Mo
_chemical_formula_sum   Mo16
_cell_volume   192.97382539
_cell_formula_units_Z   16
loop_
 _symmetry_equiv_pos_site_id
 _symmetry_equiv_pos_as_xyz
  1  'x, y, z'
loop_
 _atom_site_type_symbol
 _atom_site_label
 _atom_site_symmetry_multiplicity
 _atom_site_fract_x
 _atom_site_fract_y
 _atom_site_fract_z
 _atom_site_occupancy
  Mo  Mo0  1  -0.01675060  7.32687000  3.58111000  1
  Mo  Mo1  1  1.84764000  1.80803000  3.61617000  1
  Mo  Mo2  1  1.78541000  -0.02617700  1.78443000  1
  Mo  Mo3  1  0.02166570  1.79102000  1.80470000  1
  Mo  Mo4  1  3.66759000  0.02040330  0.02770270  1
  Mo  Mo5  1  5.52399000  1.84540000  3.67134000  1
  Mo  Mo6  1  5.46942000  7.25252000  1.90167000  1
  Mo  Mo7  1  3.61669000  1.78467000  1.80914000  1
  Mo  Mo8  1  7.28305000  3.60187000  3.59202000  1
  Mo  Mo9  1  1.77660000  5.42281000  3.64209000  1
  Mo  Mo10  1  1.78190000  3.62048000  1.83262000  1
  Mo  Mo11  1  -0.01803840  5.51530000  1.79230000  1
  Mo  Mo12  1  3.67000000  3.69049000  3.65259000  1
  Mo  Mo13  1  5.44386000  5.44541000  0.02612880  1
  Mo  Mo14  1  5.45479000  3.66278000  1.80820000  1
  Mo  Mo15  1  3.63543000  5.46213000  1.85055000  1
