# generated using pymatgen
data_Mo
_symmetry_space_group_name_H-M   'P 1'
_cell_length_a   7.28075024
_cell_length_b   7.28075024
_cell_length_c   3.64037514
_cell_angle_alpha   90.00000000
_cell_angle_beta   90.00000000
_cell_angle_gamma   90.00000000
_symmetry_Int_Tables_number   1
_chemical_formula_structural   Mo
_chemical_formula_sum   Mo16
_cell_volume   192.97382539
_cell_formula_units_Z   16
loop_
 _symmetry_equiv_pos_site_id
 _symmetry_equiv_pos_as_xyz
  1  'x, y, z'
loop_
 _atom_site_type_symbol
 _atom_site_label
 _atom_site_symmetry_multiplicity
 _atom_site_fract_x
 _atom_site_fract_y
 _atom_site_fract_z
 _atom_site_occupancy
  Mo  Mo0  1  0.01713980  7.23221000  3.62302000  1
  Mo  Mo1  1  1.83196000  1.87247000  3.62403000  1
  Mo  Mo2  1  1.80619000  0.00206870  1.79868000  1
  Mo  Mo3  1  0.05300070  1.83147000  1.86925000  1
  Mo  Mo4  1  3.61593000  0.02084450  0.04409290  1
  Mo  Mo5  1  5.43856000  1.73256000  3.57056000  1
  Mo  Mo6  1  5.46013000  7.26764000  1.76008000  1
  Mo  Mo7  1  3.67011000  1.82946000  1.78794000  1
  Mo  Mo8  1  7.23594000  3.65364000  3.63924000  1
  Mo  Mo9  1  1.86329000  5.47611000  3.61700000  1
  Mo  Mo10  1  1.80665000  3.65578000  1.80625000  1
  Mo  Mo11  1  0.05730290  5.40649000  1.88172000  1
  Mo  Mo12  1  3.60374000  3.65052000  3.61492000  1
  Mo  Mo13  1  5.41158000  5.44456000  0.08077170  1
  Mo  Mo14  1  5.42693000  3.67489000  1.85828000  1
  Mo  Mo15  1  3.64482000  5.47327000  1.81693000  1
