# generated using pymatgen
data_Mo
_symmetry_space_group_name_H-M   'P 1'
_cell_length_a   7.27808089
_cell_length_b   7.27808089
_cell_length_c   3.63904047
_cell_angle_alpha   90.00000000
_cell_angle_beta   90.00000000
_cell_angle_gamma   90.00000000
_symmetry_Int_Tables_number   1
_chemical_formula_structural   Mo
_chemical_formula_sum   Mo16
_cell_volume   192.76165285
_cell_formula_units_Z   16
loop_
 _symmetry_equiv_pos_site_id
 _symmetry_equiv_pos_as_xyz
  1  'x, y, z'
loop_
 _atom_site_type_symbol
 _atom_site_label
 _atom_site_symmetry_multiplicity
 _atom_site_fract_x
 _atom_site_fract_y
 _atom_site_fract_z
 _atom_site_occupancy
  Mo  Mo0  1  0.00748146  7.26943000  0.00164532  1
  Mo  Mo1  1  1.81605000  1.83313000  -0.00684798  1
  Mo  Mo2  1  1.82002000  7.29085000  1.80420000  1
  Mo  Mo3  1  7.29217000  1.80850000  1.81220000  1
  Mo  Mo4  1  3.65011000  7.27277000  3.64708000  1
  Mo  Mo5  1  5.46186000  1.81907000  -0.00341523  1
  Mo  Mo6  1  5.44072000  -0.00710665  1.81993000  1
  Mo  Mo7  1  3.63882000  1.81842000  1.82355000  1
  Mo  Mo8  1  7.26216000  3.64357000  3.63099000  1
  Mo  Mo9  1  1.81637000  5.46302000  3.64603000  1
  Mo  Mo10  1  1.82575000  3.64872000  1.83280000  1
  Mo  Mo11  1  7.28227000  5.45122000  1.81971000  1
  Mo  Mo12  1  3.62525000  3.63533000  0.00834522  1
  Mo  Mo13  1  5.46449000  5.45743000  3.63298000  1
  Mo  Mo14  1  5.46014000  3.65054000  1.82180000  1
  Mo  Mo15  1  3.63841000  5.44717000  1.82100000  1
