# generated using pymatgen
data_Mo
_symmetry_space_group_name_H-M   'P 1'
_cell_length_a   7.27808089
_cell_length_b   7.27808089
_cell_length_c   3.63904047
_cell_angle_alpha   90.00000000
_cell_angle_beta   90.00000000
_cell_angle_gamma   90.00000000
_symmetry_Int_Tables_number   1
_chemical_formula_structural   Mo
_chemical_formula_sum   Mo16
_cell_volume   192.76165285
_cell_formula_units_Z   16
loop_
 _symmetry_equiv_pos_site_id
 _symmetry_equiv_pos_as_xyz
  1  'x, y, z'
loop_
 _atom_site_type_symbol
 _atom_site_label
 _atom_site_symmetry_multiplicity
 _atom_site_fract_x
 _atom_site_fract_y
 _atom_site_fract_z
 _atom_site_occupancy
  Mo  Mo0  1  0.00155166  7.27915000  -0.00539448  1
  Mo  Mo1  1  1.81204000  1.80893000  -0.00823453  1
  Mo  Mo2  1  1.82884000  7.26281000  1.82554000  1
  Mo  Mo3  1  7.26857000  1.82847000  1.80337000  1
  Mo  Mo4  1  3.63048000  7.28263000  3.62812000  1
  Mo  Mo5  1  5.45210000  1.81955000  0.00289974  1
  Mo  Mo6  1  5.46961000  0.00199427  1.82944000  1
  Mo  Mo7  1  3.63048000  1.81895000  1.81604000  1
  Mo  Mo8  1  7.29322000  3.63098000  3.63730000  1
  Mo  Mo9  1  1.81887000  5.45245000  3.64209000  1
  Mo  Mo10  1  1.81935000  3.64754000  1.82014000  1
  Mo  Mo11  1  7.28698000  5.46565000  1.82336000  1
  Mo  Mo12  1  3.64776000  3.64048000  0.01278400  1
  Mo  Mo13  1  5.45680000  5.45122000  3.63953000  1
  Mo  Mo14  1  5.44541000  3.64133000  1.81255000  1
  Mo  Mo15  1  3.64003000  5.46996000  1.83246000  1
