# generated using pymatgen
data_Mo
_symmetry_space_group_name_H-M   'P 1'
_cell_length_a   7.28165592
_cell_length_b   7.28165592
_cell_length_c   3.64082789
_cell_angle_alpha   90.00000000
_cell_angle_beta   90.00000000
_cell_angle_gamma   90.00000000
_symmetry_Int_Tables_number   1
_chemical_formula_structural   Mo
_chemical_formula_sum   Mo16
_cell_volume   193.04584401
_cell_formula_units_Z   16
loop_
 _symmetry_equiv_pos_site_id
 _symmetry_equiv_pos_as_xyz
  1  'x, y, z'
loop_
 _atom_site_type_symbol
 _atom_site_label
 _atom_site_symmetry_multiplicity
 _atom_site_fract_x
 _atom_site_fract_y
 _atom_site_fract_z
 _atom_site_occupancy
  Mo  Mo0  1  0.02475500  0.04158030  -0.00074451  1
  Mo  Mo1  1  1.85247000  1.78914000  0.02635830  1
  Mo  Mo2  1  1.82461000  7.31233000  1.81787000  1
  Mo  Mo3  1  7.27833000  1.86779000  1.76616000  1
  Mo  Mo4  1  3.63933000  -0.01303170  3.63092000  1
  Mo  Mo5  1  5.54516000  1.83177000  3.67494000  1
  Mo  Mo6  1  5.48450000  -0.08135390  1.75361000  1
  Mo  Mo7  1  3.68864000  1.83260000  1.83602000  1
  Mo  Mo8  1  7.26807000  3.63050000  0.03092800  1
  Mo  Mo9  1  1.76457000  5.40027000  -0.01753670  1
  Mo  Mo10  1  1.75832000  3.62975000  1.84131000  1
  Mo  Mo11  1  7.34224000  5.42909000  1.89063000  1
  Mo  Mo12  1  3.56985000  3.58189000  3.63801000  1
  Mo  Mo13  1  5.42710000  5.51775000  -0.05615220  1
  Mo  Mo14  1  5.43115000  3.75455000  1.79576000  1
  Mo  Mo15  1  3.60657000  5.41772000  1.84311000  1
