# generated using pymatgen
data_Mo
_symmetry_space_group_name_H-M   'P 1'
_cell_length_a   7.28165592
_cell_length_b   7.28165592
_cell_length_c   3.64082789
_cell_angle_alpha   90.00000000
_cell_angle_beta   90.00000000
_cell_angle_gamma   90.00000000
_symmetry_Int_Tables_number   1
_chemical_formula_structural   Mo
_chemical_formula_sum   Mo16
_cell_volume   193.04584401
_cell_formula_units_Z   16
loop_
 _symmetry_equiv_pos_site_id
 _symmetry_equiv_pos_as_xyz
  1  'x, y, z'
loop_
 _atom_site_type_symbol
 _atom_site_label
 _atom_site_symmetry_multiplicity
 _atom_site_fract_x
 _atom_site_fract_y
 _atom_site_fract_z
 _atom_site_occupancy
  Mo  Mo0  1  0.00904958  -0.01755360  -0.00933157  1
  Mo  Mo1  1  1.83474000  1.87270000  -0.01245510  1
  Mo  Mo2  1  1.73719000  7.28414000  1.79820000  1
  Mo  Mo3  1  7.31595000  1.84256000  1.79876000  1
  Mo  Mo4  1  3.53811000  -0.04948750  3.67041000  1
  Mo  Mo5  1  5.43453000  1.84849000  3.61875000  1
  Mo  Mo6  1  5.43275000  0.03676840  1.85275000  1
  Mo  Mo7  1  3.58580000  1.75507000  1.80735000  1
  Mo  Mo8  1  7.24751000  3.63686000  0.05224770  1
  Mo  Mo9  1  1.83020000  5.41369000  0.05724130  1
  Mo  Mo10  1  1.86355000  3.71375000  1.73613000  1
  Mo  Mo11  1  7.32808000  5.44923000  1.87343000  1
  Mo  Mo12  1  3.66159000  3.65448000  3.62035000  1
  Mo  Mo13  1  5.48070000  5.43383000  -0.01849320  1
  Mo  Mo14  1  5.50802000  3.58112000  1.84783000  1
  Mo  Mo15  1  3.69789000  5.48669000  1.77799000  1
