# generated using pymatgen
data_Mo
_symmetry_space_group_name_H-M   'P 1'
_cell_length_a   7.28165592
_cell_length_b   7.28165592
_cell_length_c   3.64082789
_cell_angle_alpha   90.00000000
_cell_angle_beta   90.00000000
_cell_angle_gamma   90.00000000
_symmetry_Int_Tables_number   1
_chemical_formula_structural   Mo
_chemical_formula_sum   Mo16
_cell_volume   193.04584401
_cell_formula_units_Z   16
loop_
 _symmetry_equiv_pos_site_id
 _symmetry_equiv_pos_as_xyz
  1  'x, y, z'
loop_
 _atom_site_type_symbol
 _atom_site_label
 _atom_site_symmetry_multiplicity
 _atom_site_fract_x
 _atom_site_fract_y
 _atom_site_fract_z
 _atom_site_occupancy
  Mo  Mo0  1  -0.04085310  -0.00707573  0.01258450  1
  Mo  Mo1  1  1.76638000  1.81342000  -0.00278750  1
  Mo  Mo2  1  1.79433000  7.17666000  1.84274000  1
  Mo  Mo3  1  7.32242000  1.77970000  1.76106000  1
  Mo  Mo4  1  3.59567000  0.06198110  3.65103000  1
  Mo  Mo5  1  5.41284000  1.85510000  3.65095000  1
  Mo  Mo6  1  5.42574000  -0.03825280  1.84913000  1
  Mo  Mo7  1  3.60747000  1.85831000  1.81369000  1
  Mo  Mo8  1  7.33815000  3.62534000  -0.03464650  1
  Mo  Mo9  1  1.85855000  5.48010000  0.02783660  1
  Mo  Mo10  1  1.81291000  3.73414000  1.78520000  1
  Mo  Mo11  1  7.22058000  5.49150000  1.81279000  1
  Mo  Mo12  1  3.69700000  3.63120000  3.64614000  1
  Mo  Mo13  1  5.49162000  5.40423000  -0.00660798  1
  Mo  Mo14  1  5.53170000  3.62380000  1.87356000  1
  Mo  Mo15  1  3.67113000  5.45219000  1.78850000  1
