# generated using pymatgen
data_Mo
_symmetry_space_group_name_H-M   'P 1'
_cell_length_a   7.28165592
_cell_length_b   7.28165592
_cell_length_c   3.64082789
_cell_angle_alpha   90.00000000
_cell_angle_beta   90.00000000
_cell_angle_gamma   90.00000000
_symmetry_Int_Tables_number   1
_chemical_formula_structural   Mo
_chemical_formula_sum   Mo16
_cell_volume   193.04584401
_cell_formula_units_Z   16
loop_
 _symmetry_equiv_pos_site_id
 _symmetry_equiv_pos_as_xyz
  1  'x, y, z'
loop_
 _atom_site_type_symbol
 _atom_site_label
 _atom_site_symmetry_multiplicity
 _atom_site_fract_x
 _atom_site_fract_y
 _atom_site_fract_z
 _atom_site_occupancy
  Mo  Mo0  1  -0.02833040  -0.00248718  -0.01927400  1
  Mo  Mo1  1  1.87659000  1.76187000  -0.04619850  1
  Mo  Mo2  1  1.87225000  7.35199000  1.83039000  1
  Mo  Mo3  1  7.27059000  1.85644000  1.76365000  1
  Mo  Mo4  1  3.67583000  0.00312726  3.63910000  1
  Mo  Mo5  1  5.53298000  1.83635000  3.69873000  1
  Mo  Mo6  1  5.36747000  -0.00999448  1.82737000  1
  Mo  Mo7  1  3.72114000  1.89568000  1.88425000  1
  Mo  Mo8  1  7.32046000  3.66330000  -0.02533790  1
  Mo  Mo9  1  1.75881000  5.50251000  -0.04045110  1
  Mo  Mo10  1  1.84161000  3.54508000  1.85897000  1
  Mo  Mo11  1  7.25378000  5.42724000  1.80971000  1
  Mo  Mo12  1  3.63367000  3.60105000  3.65655000  1
  Mo  Mo13  1  5.38056000  5.46863000  -0.00012351  1
  Mo  Mo14  1  5.44031000  3.63601000  1.83463000  1
  Mo  Mo15  1  3.58794000  5.40556000  1.79921000  1
