# generated using pymatgen
data_Mo
_symmetry_space_group_name_H-M   'P 1'
_cell_length_a   7.28165592
_cell_length_b   7.28165592
_cell_length_c   3.64082789
_cell_angle_alpha   90.00000000
_cell_angle_beta   90.00000000
_cell_angle_gamma   90.00000000
_symmetry_Int_Tables_number   1
_chemical_formula_structural   Mo
_chemical_formula_sum   Mo16
_cell_volume   193.04584401
_cell_formula_units_Z   16
loop_
 _symmetry_equiv_pos_site_id
 _symmetry_equiv_pos_as_xyz
  1  'x, y, z'
loop_
 _atom_site_type_symbol
 _atom_site_label
 _atom_site_symmetry_multiplicity
 _atom_site_fract_x
 _atom_site_fract_y
 _atom_site_fract_z
 _atom_site_occupancy
  Mo  Mo0  1  -0.01645560  0.02590890  0.03989950  1
  Mo  Mo1  1  1.79505000  1.82840000  -0.04211860  1
  Mo  Mo2  1  1.85607000  7.30350000  1.84922000  1
  Mo  Mo3  1  7.29930000  1.87619000  1.84997000  1
  Mo  Mo4  1  3.66767000  0.02080860  3.64982000  1
  Mo  Mo5  1  5.46322000  1.81024000  3.59014000  1
  Mo  Mo6  1  5.43974000  0.02475720  1.81100000  1
  Mo  Mo7  1  3.75205000  1.81568000  1.80406000  1
  Mo  Mo8  1  7.31471000  3.63984000  -0.00388054  1
  Mo  Mo9  1  1.79837000  5.47537000  -0.01065230  1
  Mo  Mo10  1  1.93115000  3.58456000  1.82653000  1
  Mo  Mo11  1  7.18341000  5.40185000  1.83090000  1
  Mo  Mo12  1  3.60798000  3.61174000  3.61407000  1
  Mo  Mo13  1  5.42781000  5.47470000  0.02820260  1
  Mo  Mo14  1  5.43238000  3.60747000  1.79949000  1
  Mo  Mo15  1  3.55321000  5.44134000  1.83451000  1
