# generated using pymatgen
data_Mo
_symmetry_space_group_name_H-M   'P 1'
_cell_length_a   7.28165592
_cell_length_b   7.28165592
_cell_length_c   3.64082789
_cell_angle_alpha   90.00000000
_cell_angle_beta   90.00000000
_cell_angle_gamma   90.00000000
_symmetry_Int_Tables_number   1
_chemical_formula_structural   Mo
_chemical_formula_sum   Mo16
_cell_volume   193.04584401
_cell_formula_units_Z   16
loop_
 _symmetry_equiv_pos_site_id
 _symmetry_equiv_pos_as_xyz
  1  'x, y, z'
loop_
 _atom_site_type_symbol
 _atom_site_label
 _atom_site_symmetry_multiplicity
 _atom_site_fract_x
 _atom_site_fract_y
 _atom_site_fract_z
 _atom_site_occupancy
  Mo  Mo0  1  -0.07145360  0.02026230  0.00371224  1
  Mo  Mo1  1  1.96168000  1.82903000  0.05972600  1
  Mo  Mo2  1  1.76314000  7.33653000  1.82247000  1
  Mo  Mo3  1  7.30935000  1.85172000  1.83607000  1
  Mo  Mo4  1  3.63428000  0.02834420  3.63119000  1
  Mo  Mo5  1  5.54164000  1.86115000  3.65308000  1
  Mo  Mo6  1  5.45486000  -0.00952655  1.83656000  1
  Mo  Mo7  1  3.67028000  1.77794000  1.76670000  1
  Mo  Mo8  1  7.28528000  3.62489000  -0.03165140  1
  Mo  Mo9  1  1.80520000  5.42512000  -0.00590435  1
  Mo  Mo10  1  1.80480000  3.62379000  1.76699000  1
  Mo  Mo11  1  7.28091000  5.45058000  1.78381000  1
  Mo  Mo12  1  3.66626000  3.59786000  3.64684000  1
  Mo  Mo13  1  5.34237000  5.38267000  0.00603256  1
  Mo  Mo14  1  5.44477000  3.65754000  1.83739000  1
  Mo  Mo15  1  3.61228000  5.48445000  1.85816000  1
