# generated using pymatgen
data_Mo
_symmetry_space_group_name_H-M   'P 1'
_cell_length_a   7.27808089
_cell_length_b   7.27808089
_cell_length_c   3.63904047
_cell_angle_alpha   90.00000000
_cell_angle_beta   90.00000000
_cell_angle_gamma   90.00000000
_symmetry_Int_Tables_number   1
_chemical_formula_structural   Mo
_chemical_formula_sum   Mo16
_cell_volume   192.76165285
_cell_formula_units_Z   16
loop_
 _symmetry_equiv_pos_site_id
 _symmetry_equiv_pos_as_xyz
  1  'x, y, z'
loop_
 _atom_site_type_symbol
 _atom_site_label
 _atom_site_symmetry_multiplicity
 _atom_site_fract_x
 _atom_site_fract_y
 _atom_site_fract_z
 _atom_site_occupancy
  Mo  Mo0  1  -0.00292356  7.28163000  0.00939924  1
  Mo  Mo1  1  1.82019000  1.81945000  0.00860509  1
  Mo  Mo2  1  1.81346000  7.27085000  1.81290000  1
  Mo  Mo3  1  7.27661000  1.82181000  1.82733000  1
  Mo  Mo4  1  3.65027000  7.28799000  3.63132000  1
  Mo  Mo5  1  5.46887000  1.82076000  0.01491190  1
  Mo  Mo6  1  5.45204000  0.00361846  1.82649000  1
  Mo  Mo7  1  3.64239000  1.81499000  1.81943000  1
  Mo  Mo8  1  7.26925000  3.64144000  3.63885000  1
  Mo  Mo9  1  1.80992000  5.46418000  3.63536000  1
  Mo  Mo10  1  1.83092000  3.63073000  1.82314000  1
  Mo  Mo11  1  7.27446000  5.46610000  1.82486000  1
  Mo  Mo12  1  3.64191000  3.63826000  -0.00774846  1
  Mo  Mo13  1  5.45930000  5.45835000  3.62478000  1
  Mo  Mo14  1  5.46295000  3.62182000  1.80990000  1
  Mo  Mo15  1  3.63245000  5.46010000  1.81248000  1
