# generated using pymatgen
data_Mo
_symmetry_space_group_name_H-M   'P 1'
_cell_length_a   7.28165592
_cell_length_b   7.28165592
_cell_length_c   3.64082789
_cell_angle_alpha   90.00000000
_cell_angle_beta   90.00000000
_cell_angle_gamma   90.00000000
_symmetry_Int_Tables_number   1
_chemical_formula_structural   Mo
_chemical_formula_sum   Mo16
_cell_volume   193.04584401
_cell_formula_units_Z   16
loop_
 _symmetry_equiv_pos_site_id
 _symmetry_equiv_pos_as_xyz
  1  'x, y, z'
loop_
 _atom_site_type_symbol
 _atom_site_label
 _atom_site_symmetry_multiplicity
 _atom_site_fract_x
 _atom_site_fract_y
 _atom_site_fract_z
 _atom_site_occupancy
  Mo  Mo0  1  -0.06396440  -0.02700030  -0.02643690  1
  Mo  Mo1  1  1.75295000  1.83950000  -0.03612660  1
  Mo  Mo2  1  1.83815000  7.30157000  1.85802000  1
  Mo  Mo3  1  7.30083000  1.72121000  1.77875000  1
  Mo  Mo4  1  3.61676000  0.06269710  3.68059000  1
  Mo  Mo5  1  5.47292000  1.80381000  3.68909000  1
  Mo  Mo6  1  5.44394000  -0.02974560  1.79231000  1
  Mo  Mo7  1  3.61417000  1.80607000  1.90789000  1
  Mo  Mo8  1  7.32467000  3.60244000  -0.04051710  1
  Mo  Mo9  1  1.79511000  5.48173000  0.01586220  1
  Mo  Mo10  1  1.82804000  3.72478000  1.82460000  1
  Mo  Mo11  1  7.26972000  5.48728000  1.81123000  1
  Mo  Mo12  1  3.65173000  3.62193000  3.61699000  1
  Mo  Mo13  1  5.51505000  5.45323000  0.00723875  1
  Mo  Mo14  1  5.46765000  3.60215000  1.77164000  1
  Mo  Mo15  1  3.67794000  5.49068000  1.82005000  1
