# generated using pymatgen
data_Mo
_symmetry_space_group_name_H-M   'P 1'
_cell_length_a   7.28165592
_cell_length_b   7.28165592
_cell_length_c   3.64082789
_cell_angle_alpha   90.00000000
_cell_angle_beta   90.00000000
_cell_angle_gamma   90.00000000
_symmetry_Int_Tables_number   1
_chemical_formula_structural   Mo
_chemical_formula_sum   Mo16
_cell_volume   193.04584401
_cell_formula_units_Z   16
loop_
 _symmetry_equiv_pos_site_id
 _symmetry_equiv_pos_as_xyz
  1  'x, y, z'
loop_
 _atom_site_type_symbol
 _atom_site_label
 _atom_site_symmetry_multiplicity
 _atom_site_fract_x
 _atom_site_fract_y
 _atom_site_fract_z
 _atom_site_occupancy
  Mo  Mo0  1  0.04669550  -0.00023959  -0.03543380  1
  Mo  Mo1  1  1.88667000  1.75583000  0.03549150  1
  Mo  Mo2  1  1.85313000  7.23913000  1.77598000  1
  Mo  Mo3  1  7.29676000  1.86137000  1.81297000  1
  Mo  Mo4  1  3.69832000  -0.04369060  3.63092000  1
  Mo  Mo5  1  5.46310000  1.81688000  3.64793000  1
  Mo  Mo6  1  5.44724000  0.06726580  1.85603000  1
  Mo  Mo7  1  3.55653000  1.92031000  1.81454000  1
  Mo  Mo8  1  7.26389000  3.71593000  -0.01226590  1
  Mo  Mo9  1  1.79903000  5.41161000  0.02198850  1
  Mo  Mo10  1  1.78124000  3.63114000  1.82321000  1
  Mo  Mo11  1  7.22645000  5.46925000  1.80661000  1
  Mo  Mo12  1  3.58042000  3.66180000  3.66264000  1
  Mo  Mo13  1  5.40435000  5.46063000  -0.04182290  1
  Mo  Mo14  1  5.49021000  3.58739000  1.84415000  1
  Mo  Mo15  1  3.71163000  5.38776000  1.82824000  1
