# generated using pymatgen
data_Mo
_symmetry_space_group_name_H-M   'P 1'
_cell_length_a   7.28165592
_cell_length_b   7.28165592
_cell_length_c   3.64082789
_cell_angle_alpha   90.00000000
_cell_angle_beta   90.00000000
_cell_angle_gamma   90.00000000
_symmetry_Int_Tables_number   1
_chemical_formula_structural   Mo
_chemical_formula_sum   Mo16
_cell_volume   193.04584401
_cell_formula_units_Z   16
loop_
 _symmetry_equiv_pos_site_id
 _symmetry_equiv_pos_as_xyz
  1  'x, y, z'
loop_
 _atom_site_type_symbol
 _atom_site_label
 _atom_site_symmetry_multiplicity
 _atom_site_fract_x
 _atom_site_fract_y
 _atom_site_fract_z
 _atom_site_occupancy
  Mo  Mo0  1  -0.00279384  0.02913670  -0.02068260  1
  Mo  Mo1  1  1.82692000  1.89436000  -0.02018380  1
  Mo  Mo2  1  1.82497000  7.30285000  1.81648000  1
  Mo  Mo3  1  7.21759000  1.82124000  1.78091000  1
  Mo  Mo4  1  3.63489000  0.04216010  3.67572000  1
  Mo  Mo5  1  5.44770000  1.84616000  3.68468000  1
  Mo  Mo6  1  5.43385000  -0.09642410  1.85611000  1
  Mo  Mo7  1  3.66981000  1.83143000  1.83267000  1
  Mo  Mo8  1  7.34509000  3.59324000  -0.01280250  1
  Mo  Mo9  1  1.84831000  5.46992000  -0.01136960  1
  Mo  Mo10  1  1.80009000  3.62628000  1.82945000  1
  Mo  Mo11  1  7.31841000  5.42270000  1.79770000  1
  Mo  Mo12  1  3.66161000  3.67456000  3.65684000  1
  Mo  Mo13  1  5.41043000  5.34960000  -0.03336070  1
  Mo  Mo14  1  5.49813000  3.66855000  1.82189000  1
  Mo  Mo15  1  3.57066000  5.46657000  1.81712000  1
