# generated using pymatgen
data_Mo
_symmetry_space_group_name_H-M   'P 1'
_cell_length_a   7.28165592
_cell_length_b   7.28165592
_cell_length_c   3.64082789
_cell_angle_alpha   90.00000000
_cell_angle_beta   90.00000000
_cell_angle_gamma   90.00000000
_symmetry_Int_Tables_number   1
_chemical_formula_structural   Mo
_chemical_formula_sum   Mo16
_cell_volume   193.04584401
_cell_formula_units_Z   16
loop_
 _symmetry_equiv_pos_site_id
 _symmetry_equiv_pos_as_xyz
  1  'x, y, z'
loop_
 _atom_site_type_symbol
 _atom_site_label
 _atom_site_symmetry_multiplicity
 _atom_site_fract_x
 _atom_site_fract_y
 _atom_site_fract_z
 _atom_site_occupancy
  Mo  Mo0  1  0.04015360  0.05000290  -0.00384544  1
  Mo  Mo1  1  1.82312000  1.76549000  0.02043450  1
  Mo  Mo2  1  1.85893000  7.22025000  1.83562000  1
  Mo  Mo3  1  7.35630000  1.81595000  1.76971000  1
  Mo  Mo4  1  3.64886000  0.04475070  3.61397000  1
  Mo  Mo5  1  5.50200000  1.86027000  3.65744000  1
  Mo  Mo6  1  5.49185000  0.00268893  1.80343000  1
  Mo  Mo7  1  3.62816000  1.79871000  1.82371000  1
  Mo  Mo8  1  7.26215000  3.63248000  0.00646242  1
  Mo  Mo9  1  1.80631000  5.45609000  0.00421102  1
  Mo  Mo10  1  1.72393000  3.69398000  1.85337000  1
  Mo  Mo11  1  7.23340000  5.48852000  1.84716000  1
  Mo  Mo12  1  3.58967000  3.56137000  3.64821000  1
  Mo  Mo13  1  5.44857000  5.47646000  -0.05441210  1
  Mo  Mo14  1  5.45194000  3.65112000  1.85664000  1
  Mo  Mo15  1  3.64032000  5.42420000  1.78905000  1
