# generated using pymatgen
data_Mo
_symmetry_space_group_name_H-M   'P 1'
_cell_length_a   7.28165592
_cell_length_b   7.28165592
_cell_length_c   3.64082789
_cell_angle_alpha   90.00000000
_cell_angle_beta   90.00000000
_cell_angle_gamma   90.00000000
_symmetry_Int_Tables_number   1
_chemical_formula_structural   Mo
_chemical_formula_sum   Mo16
_cell_volume   193.04584401
_cell_formula_units_Z   16
loop_
 _symmetry_equiv_pos_site_id
 _symmetry_equiv_pos_as_xyz
  1  'x, y, z'
loop_
 _atom_site_type_symbol
 _atom_site_label
 _atom_site_symmetry_multiplicity
 _atom_site_fract_x
 _atom_site_fract_y
 _atom_site_fract_z
 _atom_site_occupancy
  Mo  Mo0  1  -0.05876940  0.02188590  0.06097070  1
  Mo  Mo1  1  1.78431000  1.80192000  -0.01608420  1
  Mo  Mo2  1  1.88196000  7.22115000  1.83351000  1
  Mo  Mo3  1  7.34843000  1.75778000  1.88463000  1
  Mo  Mo4  1  3.60933000  -0.01418540  3.59451000  1
  Mo  Mo5  1  5.50422000  1.87992000  3.61506000  1
  Mo  Mo6  1  5.42242000  0.02218980  1.79123000  1
  Mo  Mo7  1  3.65780000  1.76456000  1.75973000  1
  Mo  Mo8  1  7.27343000  3.60739000  0.01856230  1
  Mo  Mo9  1  1.81501000  5.46324000  -0.02154590  1
  Mo  Mo10  1  1.79897000  3.70807000  1.83104000  1
  Mo  Mo11  1  7.19554000  5.51621000  1.82436000  1
  Mo  Mo12  1  3.67069000  3.62458000  3.60157000  1
  Mo  Mo13  1  5.46461000  5.46962000  0.08046540  1
  Mo  Mo14  1  5.47766000  3.65564000  1.77625000  1
  Mo  Mo15  1  3.66005000  5.44236000  1.83692000  1
