# generated using pymatgen
data_Mo
_symmetry_space_group_name_H-M   'P 1'
_cell_length_a   7.28165592
_cell_length_b   7.28165592
_cell_length_c   3.64082789
_cell_angle_alpha   90.00000000
_cell_angle_beta   90.00000000
_cell_angle_gamma   90.00000000
_symmetry_Int_Tables_number   1
_chemical_formula_structural   Mo
_chemical_formula_sum   Mo16
_cell_volume   193.04584401
_cell_formula_units_Z   16
loop_
 _symmetry_equiv_pos_site_id
 _symmetry_equiv_pos_as_xyz
  1  'x, y, z'
loop_
 _atom_site_type_symbol
 _atom_site_label
 _atom_site_symmetry_multiplicity
 _atom_site_fract_x
 _atom_site_fract_y
 _atom_site_fract_z
 _atom_site_occupancy
  Mo  Mo0  1  -0.05114390  -0.03148360  -0.01475430  1
  Mo  Mo1  1  1.86994000  1.75333000  -0.03393830  1
  Mo  Mo2  1  1.82291000  7.29647000  1.82479000  1
  Mo  Mo3  1  7.27595000  1.82246000  1.76087000  1
  Mo  Mo4  1  3.66907000  -0.06153710  3.62498000  1
  Mo  Mo5  1  5.58652000  1.83035000  3.69564000  1
  Mo  Mo6  1  5.36384000  0.02876890  1.83199000  1
  Mo  Mo7  1  3.64605000  1.90225000  1.88378000  1
  Mo  Mo8  1  7.32453000  3.68234000  -0.06219810  1
  Mo  Mo9  1  1.75593000  5.46321000  -0.04495140  1
  Mo  Mo10  1  1.77936000  3.61456000  1.84078000  1
  Mo  Mo11  1  7.33696000  5.46031000  1.83447000  1
  Mo  Mo12  1  3.57859000  3.64101000  3.66331000  1
  Mo  Mo13  1  5.42447000  5.50347000  0.01954300  1
  Mo  Mo14  1  5.47902000  3.63774000  1.81369000  1
  Mo  Mo15  1  3.64368000  5.39908000  1.83317000  1
