# generated using pymatgen
data_Mo
_symmetry_space_group_name_H-M   'P 1'
_cell_length_a   7.28165592
_cell_length_b   7.28165592
_cell_length_c   3.64082789
_cell_angle_alpha   90.00000000
_cell_angle_beta   90.00000000
_cell_angle_gamma   90.00000000
_symmetry_Int_Tables_number   1
_chemical_formula_structural   Mo
_chemical_formula_sum   Mo16
_cell_volume   193.04584401
_cell_formula_units_Z   16
loop_
 _symmetry_equiv_pos_site_id
 _symmetry_equiv_pos_as_xyz
  1  'x, y, z'
loop_
 _atom_site_type_symbol
 _atom_site_label
 _atom_site_symmetry_multiplicity
 _atom_site_fract_x
 _atom_site_fract_y
 _atom_site_fract_z
 _atom_site_occupancy
  Mo  Mo0  1  -0.09014370  0.01956130  0.00979592  1
  Mo  Mo1  1  1.88434000  1.85649000  0.02170090  1
  Mo  Mo2  1  1.80902000  7.30927000  1.80761000  1
  Mo  Mo3  1  7.29662000  1.79215000  1.83396000  1
  Mo  Mo4  1  3.65273000  0.03686990  3.65033000  1
  Mo  Mo5  1  5.47193000  1.87561000  3.63482000  1
  Mo  Mo6  1  5.42331000  -0.02183430  1.81747000  1
  Mo  Mo7  1  3.73490000  1.79022000  1.79425000  1
  Mo  Mo8  1  7.32058000  3.62257000  -0.02803460  1
  Mo  Mo9  1  1.84414000  5.41137000  0.02815360  1
  Mo  Mo10  1  1.80576000  3.61491000  1.74223000  1
  Mo  Mo11  1  7.28406000  5.50311000  1.80614000  1
  Mo  Mo12  1  3.62699000  3.60060000  3.66608000  1
  Mo  Mo13  1  5.37416000  5.39633000  -0.00588907  1
  Mo  Mo14  1  5.51109000  3.68909000  1.83868000  1
  Mo  Mo15  1  3.55618000  5.44600000  1.85388000  1
