# generated using pymatgen
data_Mo
_symmetry_space_group_name_H-M   'P 1'
_cell_length_a   7.28165592
_cell_length_b   7.28165592
_cell_length_c   3.64082789
_cell_angle_alpha   90.00000000
_cell_angle_beta   90.00000000
_cell_angle_gamma   90.00000000
_symmetry_Int_Tables_number   1
_chemical_formula_structural   Mo
_chemical_formula_sum   Mo16
_cell_volume   193.04584401
_cell_formula_units_Z   16
loop_
 _symmetry_equiv_pos_site_id
 _symmetry_equiv_pos_as_xyz
  1  'x, y, z'
loop_
 _atom_site_type_symbol
 _atom_site_label
 _atom_site_symmetry_multiplicity
 _atom_site_fract_x
 _atom_site_fract_y
 _atom_site_fract_z
 _atom_site_occupancy
  Mo  Mo0  1  0.02110470  0.00571466  0.01925580  1
  Mo  Mo1  1  1.88478000  1.73044000  0.03488340  1
  Mo  Mo2  1  1.81413000  7.19174000  1.81629000  1
  Mo  Mo3  1  7.28859000  1.84377000  1.83980000  1
  Mo  Mo4  1  3.68431000  -0.05516490  3.59714000  1
  Mo  Mo5  1  5.48265000  1.80809000  3.59955000  1
  Mo  Mo6  1  5.42738000  0.09408580  1.83634000  1
  Mo  Mo7  1  3.62074000  1.87727000  1.74009000  1
  Mo  Mo8  1  7.26621000  3.72144000  0.04578090  1
  Mo  Mo9  1  1.79015000  5.43804000  0.00796720  1
  Mo  Mo10  1  1.79154000  3.63917000  1.79423000  1
  Mo  Mo11  1  7.22183000  5.51111000  1.88138000  1
  Mo  Mo12  1  3.63905000  3.65552000  3.60144000  1
  Mo  Mo13  1  5.39122000  5.48828000  -0.00844886  1
  Mo  Mo14  1  5.50699000  3.59184000  1.87499000  1
  Mo  Mo15  1  3.67499000  5.40099000  1.79049000  1
