# generated using pymatgen
data_Mo
_symmetry_space_group_name_H-M   'P 1'
_cell_length_a   7.28165592
_cell_length_b   7.28165592
_cell_length_c   3.64082789
_cell_angle_alpha   90.00000000
_cell_angle_beta   90.00000000
_cell_angle_gamma   90.00000000
_symmetry_Int_Tables_number   1
_chemical_formula_structural   Mo
_chemical_formula_sum   Mo16
_cell_volume   193.04584401
_cell_formula_units_Z   16
loop_
 _symmetry_equiv_pos_site_id
 _symmetry_equiv_pos_as_xyz
  1  'x, y, z'
loop_
 _atom_site_type_symbol
 _atom_site_label
 _atom_site_symmetry_multiplicity
 _atom_site_fract_x
 _atom_site_fract_y
 _atom_site_fract_z
 _atom_site_occupancy
  Mo  Mo0  1  -0.00033246  -0.03289320  0.02783820  1
  Mo  Mo1  1  1.86213000  1.84971000  0.00426596  1
  Mo  Mo2  1  1.78665000  7.27054000  1.80795000  1
  Mo  Mo3  1  7.28105000  1.84044000  1.86059000  1
  Mo  Mo4  1  3.67645000  -0.00709651  3.62766000  1
  Mo  Mo5  1  5.45179000  1.84994000  3.55621000  1
  Mo  Mo6  1  5.46862000  0.04959060  1.83795000  1
  Mo  Mo7  1  3.73391000  1.79125000  1.74100000  1
  Mo  Mo8  1  7.28033000  3.70100000  0.06061890  1
  Mo  Mo9  1  1.87551000  5.45102000  -0.03187560  1
  Mo  Mo10  1  1.80983000  3.55727000  1.78771000  1
  Mo  Mo11  1  7.29261000  5.45321000  1.86860000  1
  Mo  Mo12  1  3.58673000  3.59588000  3.61854000  1
  Mo  Mo13  1  5.41625000  5.45149000  0.02771540  1
  Mo  Mo14  1  5.43724000  3.72217000  1.86019000  1
  Mo  Mo15  1  3.54688000  5.39884000  1.81622000  1
