# generated using pymatgen
data_Mo
_symmetry_space_group_name_H-M   'P 1'
_cell_length_a   7.27808089
_cell_length_b   7.27808089
_cell_length_c   3.63904047
_cell_angle_alpha   90.00000000
_cell_angle_beta   90.00000000
_cell_angle_gamma   90.00000000
_symmetry_Int_Tables_number   1
_chemical_formula_structural   Mo
_chemical_formula_sum   Mo16
_cell_volume   192.76165285
_cell_formula_units_Z   16
loop_
 _symmetry_equiv_pos_site_id
 _symmetry_equiv_pos_as_xyz
  1  'x, y, z'
loop_
 _atom_site_type_symbol
 _atom_site_label
 _atom_site_symmetry_multiplicity
 _atom_site_fract_x
 _atom_site_fract_y
 _atom_site_fract_z
 _atom_site_occupancy
  Mo  Mo0  1  0.00648711  7.28724000  0.00457138  1
  Mo  Mo1  1  1.80348000  1.80831000  -0.01212390  1
  Mo  Mo2  1  1.82343000  7.27279000  1.80568000  1
  Mo  Mo3  1  7.27191000  1.82173000  1.81438000  1
  Mo  Mo4  1  3.64799000  7.27550000  3.64626000  1
  Mo  Mo5  1  5.45681000  1.81540000  -0.00508143  1
  Mo  Mo6  1  5.45059000  0.00059046  1.82200000  1
  Mo  Mo7  1  3.63065000  1.83089000  1.82267000  1
  Mo  Mo8  1  7.27264000  3.63217000  3.62388000  1
  Mo  Mo9  1  1.82010000  5.44971000  3.65240000  1
  Mo  Mo10  1  1.83368000  3.63306000  1.83363000  1
  Mo  Mo11  1  7.28172000  5.46648000  1.82097000  1
  Mo  Mo12  1  3.64051000  3.63749000  -0.00147121  1
  Mo  Mo13  1  5.46672000  5.46068000  3.64550000  1
  Mo  Mo14  1  5.46241000  3.63872000  1.82307000  1
  Mo  Mo15  1  3.63296000  5.47130000  1.81565000  1
