# generated using pymatgen
data_Mo
_symmetry_space_group_name_H-M   'P 1'
_cell_length_a   7.28165592
_cell_length_b   7.28165592
_cell_length_c   3.64082789
_cell_angle_alpha   90.00000000
_cell_angle_beta   90.00000000
_cell_angle_gamma   90.00000000
_symmetry_Int_Tables_number   1
_chemical_formula_structural   Mo
_chemical_formula_sum   Mo16
_cell_volume   193.04584401
_cell_formula_units_Z   16
loop_
 _symmetry_equiv_pos_site_id
 _symmetry_equiv_pos_as_xyz
  1  'x, y, z'
loop_
 _atom_site_type_symbol
 _atom_site_label
 _atom_site_symmetry_multiplicity
 _atom_site_fract_x
 _atom_site_fract_y
 _atom_site_fract_z
 _atom_site_occupancy
  Mo  Mo0  1  -0.01557160  -0.09005380  -0.00415992  1
  Mo  Mo1  1  1.80674000  1.78571000  -0.03944500  1
  Mo  Mo2  1  1.79382000  7.23226000  1.78807000  1
  Mo  Mo3  1  7.30598000  1.78202000  1.81081000  1
  Mo  Mo4  1  3.63171000  -0.05524240  3.63622000  1
  Mo  Mo5  1  5.52577000  1.84251000  3.64384000  1
  Mo  Mo6  1  5.43175000  0.10236300  1.83910000  1
  Mo  Mo7  1  3.58462000  1.88231000  1.90150000  1
  Mo  Mo8  1  7.29243000  3.69347000  -0.05521160  1
  Mo  Mo9  1  1.77737000  5.46408000  -0.04950040  1
  Mo  Mo10  1  1.82213000  3.66610000  1.80980000  1
  Mo  Mo11  1  7.27771000  5.46717000  1.84048000  1
  Mo  Mo12  1  3.62797000  3.68627000  3.68257000  1
  Mo  Mo13  1  5.44854000  5.46220000  0.03204790  1
  Mo  Mo14  1  5.50967000  3.59486000  1.79209000  1
  Mo  Mo15  1  3.68501000  5.42631000  1.84296000  1
