# generated using pymatgen
data_Mo
_symmetry_space_group_name_H-M   'P 1'
_cell_length_a   7.28165592
_cell_length_b   7.28165592
_cell_length_c   3.64082789
_cell_angle_alpha   90.00000000
_cell_angle_beta   90.00000000
_cell_angle_gamma   90.00000000
_symmetry_Int_Tables_number   1
_chemical_formula_structural   Mo
_chemical_formula_sum   Mo16
_cell_volume   193.04584401
_cell_formula_units_Z   16
loop_
 _symmetry_equiv_pos_site_id
 _symmetry_equiv_pos_as_xyz
  1  'x, y, z'
loop_
 _atom_site_type_symbol
 _atom_site_label
 _atom_site_symmetry_multiplicity
 _atom_site_fract_x
 _atom_site_fract_y
 _atom_site_fract_z
 _atom_site_occupancy
  Mo  Mo0  1  0.03278800  -0.00055242  -0.02103400  1
  Mo  Mo1  1  1.83772000  1.86202000  0.03311230  1
  Mo  Mo2  1  1.86582000  7.26769000  1.85143000  1
  Mo  Mo3  1  7.27010000  1.77170000  1.80892000  1
  Mo  Mo4  1  3.68946000  0.05929510  3.67213000  1
  Mo  Mo5  1  5.42891000  1.85548000  3.62388000  1
  Mo  Mo6  1  5.50038000  -0.06908080  1.80330000  1
  Mo  Mo7  1  3.67577000  1.82279000  1.84507000  1
  Mo  Mo8  1  7.29252000  3.63095000  -0.02904090  1
  Mo  Mo9  1  1.80726000  5.47473000  -0.06673580  1
  Mo  Mo10  1  1.75723000  3.59402000  1.83796000  1
  Mo  Mo11  1  7.27969000  5.50301000  1.74168000  1
  Mo  Mo12  1  3.61188000  3.61341000  3.69852000  1
  Mo  Mo13  1  5.44726000  5.42113000  -0.00884974  1
  Mo  Mo14  1  5.42160000  3.69800000  1.82967000  1
  Mo  Mo15  1  3.58726000  5.43776000  1.85116000  1
