# generated using pymatgen
data_Mo
_symmetry_space_group_name_H-M   'P 1'
_cell_length_a   7.28165592
_cell_length_b   7.28165592
_cell_length_c   3.64082789
_cell_angle_alpha   90.00000000
_cell_angle_beta   90.00000000
_cell_angle_gamma   90.00000000
_symmetry_Int_Tables_number   1
_chemical_formula_structural   Mo
_chemical_formula_sum   Mo16
_cell_volume   193.04584401
_cell_formula_units_Z   16
loop_
 _symmetry_equiv_pos_site_id
 _symmetry_equiv_pos_as_xyz
  1  'x, y, z'
loop_
 _atom_site_type_symbol
 _atom_site_label
 _atom_site_symmetry_multiplicity
 _atom_site_fract_x
 _atom_site_fract_y
 _atom_site_fract_z
 _atom_site_occupancy
  Mo  Mo0  1  0.01042490  -0.01903820  0.02286570  1
  Mo  Mo1  1  1.89028000  1.82063000  0.01489790  1
  Mo  Mo2  1  1.75063000  7.27712000  1.84279000  1
  Mo  Mo3  1  7.34519000  1.83909000  1.86179000  1
  Mo  Mo4  1  3.60966000  -0.02326870  3.66713000  1
  Mo  Mo5  1  5.51330000  1.81510000  3.65030000  1
  Mo  Mo6  1  5.53748000  -0.03459770  1.83471000  1
  Mo  Mo7  1  3.59384000  1.79715000  1.80665000  1
  Mo  Mo8  1  7.25096000  3.66334000  -0.02751510  1
  Mo  Mo9  1  1.75231000  5.44773000  -0.05473600  1
  Mo  Mo10  1  1.80850000  3.71781000  1.76772000  1
  Mo  Mo11  1  7.25793000  5.42584000  1.75024000  1
  Mo  Mo12  1  3.70342000  3.64660000  3.65484000  1
  Mo  Mo13  1  5.38924000  5.44722000  0.01408730  1
  Mo  Mo14  1  5.48952000  3.64826000  1.81904000  1
  Mo  Mo15  1  3.60298000  5.47336000  1.84638000  1
