# generated using pymatgen
data_Mo
_symmetry_space_group_name_H-M   'P 1'
_cell_length_a   7.28165592
_cell_length_b   7.28165592
_cell_length_c   3.64082789
_cell_angle_alpha   90.00000000
_cell_angle_beta   90.00000000
_cell_angle_gamma   90.00000000
_symmetry_Int_Tables_number   1
_chemical_formula_structural   Mo
_chemical_formula_sum   Mo16
_cell_volume   193.04584401
_cell_formula_units_Z   16
loop_
 _symmetry_equiv_pos_site_id
 _symmetry_equiv_pos_as_xyz
  1  'x, y, z'
loop_
 _atom_site_type_symbol
 _atom_site_label
 _atom_site_symmetry_multiplicity
 _atom_site_fract_x
 _atom_site_fract_y
 _atom_site_fract_z
 _atom_site_occupancy
  Mo  Mo0  1  -0.07153780  0.02780820  0.07777460  1
  Mo  Mo1  1  1.78891000  1.83031000  -0.02801340  1
  Mo  Mo2  1  1.82954000  7.24976000  1.84145000  1
  Mo  Mo3  1  7.31297000  1.72613000  1.86519000  1
  Mo  Mo4  1  3.60426000  0.04515590  3.60696000  1
  Mo  Mo5  1  5.43943000  1.84625000  3.58345000  1
  Mo  Mo6  1  5.42933000  -0.00781733  1.80451000  1
  Mo  Mo7  1  3.63870000  1.75436000  1.73541000  1
  Mo  Mo8  1  7.33599000  3.60135000  0.03784700  1
  Mo  Mo9  1  1.84149000  5.49707000  -0.04906010  1
  Mo  Mo10  1  1.80292000  3.65119000  1.82953000  1
  Mo  Mo11  1  7.23685000  5.52249000  1.84133000  1
  Mo  Mo12  1  3.67303000  3.62304000  3.62778000  1
  Mo  Mo13  1  5.49922000  5.44813000  0.06642010  1
  Mo  Mo14  1  5.51177000  3.68533000  1.81572000  1
  Mo  Mo15  1  3.63280000  5.44179000  1.81487000  1
