# generated using pymatgen
data_Mo
_symmetry_space_group_name_H-M   'P 1'
_cell_length_a   7.28165592
_cell_length_b   7.28165592
_cell_length_c   3.64082789
_cell_angle_alpha   90.00000000
_cell_angle_beta   90.00000000
_cell_angle_gamma   90.00000000
_symmetry_Int_Tables_number   1
_chemical_formula_structural   Mo
_chemical_formula_sum   Mo16
_cell_volume   193.04584401
_cell_formula_units_Z   16
loop_
 _symmetry_equiv_pos_site_id
 _symmetry_equiv_pos_as_xyz
  1  'x, y, z'
loop_
 _atom_site_type_symbol
 _atom_site_label
 _atom_site_symmetry_multiplicity
 _atom_site_fract_x
 _atom_site_fract_y
 _atom_site_fract_z
 _atom_site_occupancy
  Mo  Mo0  1  0.03873750  -0.01755810  -0.06579410  1
  Mo  Mo1  1  1.86109000  1.80613000  0.04908060  1
  Mo  Mo2  1  1.80454000  7.24763000  1.80606000  1
  Mo  Mo3  1  7.32000000  1.81448000  1.81465000  1
  Mo  Mo4  1  3.67001000  -0.04244630  3.65418000  1
  Mo  Mo5  1  5.49305000  1.82406000  3.63130000  1
  Mo  Mo6  1  5.51069000  0.06574160  1.81904000  1
  Mo  Mo7  1  3.63137000  1.75541000  1.88469000  1
  Mo  Mo8  1  7.16524000  3.59186000  0.01418810  1
  Mo  Mo9  1  1.77618000  5.42790000  0.02369410  1
  Mo  Mo10  1  1.77616000  3.70073000  1.76724000  1
  Mo  Mo11  1  7.25487000  5.47368000  1.85556000  1
  Mo  Mo12  1  3.60394000  3.66357000  3.65688000  1
  Mo  Mo13  1  5.42743000  5.48562000  -0.09232670  1
  Mo  Mo14  1  5.44913000  3.58498000  1.84606000  1
  Mo  Mo15  1  3.72321000  5.56056000  1.80668000  1
