# generated using pymatgen
data_Mo
_symmetry_space_group_name_H-M   'P 1'
_cell_length_a   7.28165592
_cell_length_b   7.28165592
_cell_length_c   3.64082789
_cell_angle_alpha   90.00000000
_cell_angle_beta   90.00000000
_cell_angle_gamma   90.00000000
_symmetry_Int_Tables_number   1
_chemical_formula_structural   Mo
_chemical_formula_sum   Mo16
_cell_volume   193.04584401
_cell_formula_units_Z   16
loop_
 _symmetry_equiv_pos_site_id
 _symmetry_equiv_pos_as_xyz
  1  'x, y, z'
loop_
 _atom_site_type_symbol
 _atom_site_label
 _atom_site_symmetry_multiplicity
 _atom_site_fract_x
 _atom_site_fract_y
 _atom_site_fract_z
 _atom_site_occupancy
  Mo  Mo0  1  -0.07602790  -0.03901660  0.00141687  1
  Mo  Mo1  1  1.79121000  1.82796000  -0.01113100  1
  Mo  Mo2  1  1.79586000  7.38397000  1.77494000  1
  Mo  Mo3  1  7.24917000  1.85075000  1.88340000  1
  Mo  Mo4  1  3.60841000  -0.03689760  3.65005000  1
  Mo  Mo5  1  5.46600000  1.82944000  3.62355000  1
  Mo  Mo6  1  5.38284000  -0.04026030  1.84288000  1
  Mo  Mo7  1  3.70912000  1.88655000  1.78902000  1
  Mo  Mo8  1  7.32382000  3.62906000  0.00792632  1
  Mo  Mo9  1  1.83405000  5.46873000  -0.02813830  1
  Mo  Mo10  1  1.87394000  3.62226000  1.81050000  1
  Mo  Mo11  1  7.36295000  5.39336000  1.79021000  1
  Mo  Mo12  1  3.63367000  3.65213000  3.61379000  1
  Mo  Mo13  1  5.47464000  5.44431000  0.05003960  1
  Mo  Mo14  1  5.48267000  3.64463000  1.80341000  1
  Mo  Mo15  1  3.59333000  5.42539000  1.86932000  1
