# generated using pymatgen
data_Mo
_symmetry_space_group_name_H-M   'P 1'
_cell_length_a   7.28165592
_cell_length_b   7.28165592
_cell_length_c   3.64082789
_cell_angle_alpha   90.00000000
_cell_angle_beta   90.00000000
_cell_angle_gamma   90.00000000
_symmetry_Int_Tables_number   1
_chemical_formula_structural   Mo
_chemical_formula_sum   Mo16
_cell_volume   193.04584401
_cell_formula_units_Z   16
loop_
 _symmetry_equiv_pos_site_id
 _symmetry_equiv_pos_as_xyz
  1  'x, y, z'
loop_
 _atom_site_type_symbol
 _atom_site_label
 _atom_site_symmetry_multiplicity
 _atom_site_fract_x
 _atom_site_fract_y
 _atom_site_fract_z
 _atom_site_occupancy
  Mo  Mo0  1  -0.03766770  0.02332830  -0.00586525  1
  Mo  Mo1  1  1.86705000  1.86153000  0.01847530  1
  Mo  Mo2  1  1.75212000  7.28084000  1.79619000  1
  Mo  Mo3  1  7.27797000  1.87510000  1.79054000  1
  Mo  Mo4  1  3.59063000  -0.02529680  3.62999000  1
  Mo  Mo5  1  5.45253000  1.83594000  3.63435000  1
  Mo  Mo6  1  5.41433000  0.02886150  1.84373000  1
  Mo  Mo7  1  3.56836000  1.80120000  1.79191000  1
  Mo  Mo8  1  7.31896000  3.61562000  0.03414490  1
  Mo  Mo9  1  1.83447000  5.38741000  0.03125970  1
  Mo  Mo10  1  1.88531000  3.68350000  1.74007000  1
  Mo  Mo11  1  7.32096000  5.43402000  1.91218000  1
  Mo  Mo12  1  3.64197000  3.64680000  3.61478000  1
  Mo  Mo13  1  5.42582000  5.39560000  -0.01346110  1
  Mo  Mo14  1  5.50050000  3.60631000  1.84876000  1
  Mo  Mo15  1  3.69233000  5.49159000  1.80410000  1
