# generated using pymatgen
data_Mo
_symmetry_space_group_name_H-M   'P 1'
_cell_length_a   7.28165592
_cell_length_b   7.28165592
_cell_length_c   3.64082789
_cell_angle_alpha   90.00000000
_cell_angle_beta   90.00000000
_cell_angle_gamma   90.00000000
_symmetry_Int_Tables_number   1
_chemical_formula_structural   Mo
_chemical_formula_sum   Mo16
_cell_volume   193.04584401
_cell_formula_units_Z   16
loop_
 _symmetry_equiv_pos_site_id
 _symmetry_equiv_pos_as_xyz
  1  'x, y, z'
loop_
 _atom_site_type_symbol
 _atom_site_label
 _atom_site_symmetry_multiplicity
 _atom_site_fract_x
 _atom_site_fract_y
 _atom_site_fract_z
 _atom_site_occupancy
  Mo  Mo0  1  -0.05138390  -0.02825190  -0.02078890  1
  Mo  Mo1  1  1.79663000  1.74832000  0.05467300  1
  Mo  Mo2  1  1.82615000  7.34280000  1.87306000  1
  Mo  Mo3  1  7.20095000  1.85682000  1.79956000  1
  Mo  Mo4  1  3.63226000  0.02760730  3.65968000  1
  Mo  Mo5  1  5.53136000  1.82877000  3.64307000  1
  Mo  Mo6  1  5.44343000  -0.12159800  1.78858000  1
  Mo  Mo7  1  3.65730000  1.85608000  1.88748000  1
  Mo  Mo8  1  7.29119000  3.66083000  -0.04512360  1
  Mo  Mo9  1  1.79395000  5.42827000  -0.00695963  1
  Mo  Mo10  1  1.86713000  3.61779000  1.82032000  1
  Mo  Mo11  1  7.29709000  5.42736000  1.78740000  1
  Mo  Mo12  1  3.69520000  3.64997000  3.62628000  1
  Mo  Mo13  1  5.41750000  5.45772000  -0.01369110  1
  Mo  Mo14  1  5.47161000  3.69371000  1.79911000  1
  Mo  Mo15  1  3.63527000  5.49615000  1.81852000  1
