# generated using pymatgen
data_Mo
_symmetry_space_group_name_H-M   'P 1'
_cell_length_a   7.28165592
_cell_length_b   7.28165592
_cell_length_c   3.64082789
_cell_angle_alpha   90.00000000
_cell_angle_beta   90.00000000
_cell_angle_gamma   90.00000000
_symmetry_Int_Tables_number   1
_chemical_formula_structural   Mo
_chemical_formula_sum   Mo16
_cell_volume   193.04584401
_cell_formula_units_Z   16
loop_
 _symmetry_equiv_pos_site_id
 _symmetry_equiv_pos_as_xyz
  1  'x, y, z'
loop_
 _atom_site_type_symbol
 _atom_site_label
 _atom_site_symmetry_multiplicity
 _atom_site_fract_x
 _atom_site_fract_y
 _atom_site_fract_z
 _atom_site_occupancy
  Mo  Mo0  1  -0.04639360  -0.03313790  0.05378530  1
  Mo  Mo1  1  1.78341000  1.75627000  -0.07326510  1
  Mo  Mo2  1  1.78102000  7.34688000  1.83213000  1
  Mo  Mo3  1  7.26501000  1.83517000  1.81521000  1
  Mo  Mo4  1  3.63178000  -0.03631450  3.59666000  1
  Mo  Mo5  1  5.43901000  1.85895000  3.63427000  1
  Mo  Mo6  1  5.43589000  -0.01855840  1.77806000  1
  Mo  Mo7  1  3.71967000  1.81477000  1.83263000  1
  Mo  Mo8  1  7.28422000  3.67051000  0.01803520  1
  Mo  Mo9  1  1.81573000  5.47736000  0.04703880  1
  Mo  Mo10  1  1.84218000  3.57356000  1.80900000  1
  Mo  Mo11  1  7.32729000  5.45229000  1.90812000  1
  Mo  Mo12  1  3.64048000  3.60692000  3.61962000  1
  Mo  Mo13  1  5.51565000  5.50634000  0.01059720  1
  Mo  Mo14  1  5.44363000  3.70227000  1.82299000  1
  Mo  Mo15  1  3.62708000  5.42907000  1.76627000  1
