# generated using pymatgen
data_Mo
_symmetry_space_group_name_H-M   'P 1'
_cell_length_a   7.28165592
_cell_length_b   7.28165592
_cell_length_c   3.64082789
_cell_angle_alpha   90.00000000
_cell_angle_beta   90.00000000
_cell_angle_gamma   90.00000000
_symmetry_Int_Tables_number   1
_chemical_formula_structural   Mo
_chemical_formula_sum   Mo16
_cell_volume   193.04584401
_cell_formula_units_Z   16
loop_
 _symmetry_equiv_pos_site_id
 _symmetry_equiv_pos_as_xyz
  1  'x, y, z'
loop_
 _atom_site_type_symbol
 _atom_site_label
 _atom_site_symmetry_multiplicity
 _atom_site_fract_x
 _atom_site_fract_y
 _atom_site_fract_z
 _atom_site_occupancy
  Mo  Mo0  1  0.02011360  0.05321420  -0.00208718  1
  Mo  Mo1  1  1.79570000  1.81172000  0.00595867  1
  Mo  Mo2  1  1.92373000  7.23147000  1.83505000  1
  Mo  Mo3  1  7.30252000  1.76466000  1.82460000  1
  Mo  Mo4  1  3.69062000  0.07618600  3.60911000  1
  Mo  Mo5  1  5.38320000  1.87487000  3.61974000  1
  Mo  Mo6  1  5.49587000  0.00848040  1.81537000  1
  Mo  Mo7  1  3.67588000  1.80603000  1.82558000  1
  Mo  Mo8  1  7.27225000  3.60151000  -0.00483110  1
  Mo  Mo9  1  1.88015000  5.47594000  0.03027470  1
  Mo  Mo10  1  1.78024000  3.65154000  1.81475000  1
  Mo  Mo11  1  7.19715000  5.53943000  1.81784000  1
  Mo  Mo12  1  3.61527000  3.58861000  3.65585000  1
  Mo  Mo13  1  5.43085000  5.39842000  -0.03924260  1
  Mo  Mo14  1  5.43873000  3.62695000  1.88262000  1
  Mo  Mo15  1  3.60338000  5.43332000  1.78061000  1
