# generated using pymatgen
data_Mo
_symmetry_space_group_name_H-M   'P 1'
_cell_length_a   7.27808089
_cell_length_b   7.27808089
_cell_length_c   3.63904047
_cell_angle_alpha   90.00000000
_cell_angle_beta   90.00000000
_cell_angle_gamma   90.00000000
_symmetry_Int_Tables_number   1
_chemical_formula_structural   Mo
_chemical_formula_sum   Mo16
_cell_volume   192.76165285
_cell_formula_units_Z   16
loop_
 _symmetry_equiv_pos_site_id
 _symmetry_equiv_pos_as_xyz
  1  'x, y, z'
loop_
 _atom_site_type_symbol
 _atom_site_label
 _atom_site_symmetry_multiplicity
 _atom_site_fract_x
 _atom_site_fract_y
 _atom_site_fract_z
 _atom_site_occupancy
  Mo  Mo0  1  0.00954931  7.28127000  -0.00574753  1
  Mo  Mo1  1  1.81269000  1.81162000  -0.00388975  1
  Mo  Mo2  1  1.81739000  7.26624000  1.80966000  1
  Mo  Mo3  1  7.27420000  1.82593000  1.80127000  1
  Mo  Mo4  1  3.64575000  7.28040000  3.63829000  1
  Mo  Mo5  1  5.45448000  1.81719000  0.00448273  1
  Mo  Mo6  1  5.45530000  0.00385623  1.82654000  1
  Mo  Mo7  1  3.62679000  1.81763000  1.81743000  1
  Mo  Mo8  1  7.27724000  3.64524000  3.63353000  1
  Mo  Mo9  1  1.82184000  5.45307000  3.64857000  1
  Mo  Mo10  1  1.82999000  3.63756000  1.82406000  1
  Mo  Mo11  1  7.29037000  5.45718000  1.82809000  1
  Mo  Mo12  1  3.63654000  3.65764000  0.00508877  1
  Mo  Mo13  1  5.46145000  5.45165000  3.64051000  1
  Mo  Mo14  1  5.45544000  3.63242000  1.81203000  1
  Mo  Mo15  1  3.63307000  5.46319000  1.83209000  1
