# generated using pymatgen
data_Mo
_symmetry_space_group_name_H-M   'P 1'
_cell_length_a   7.28165592
_cell_length_b   7.28165592
_cell_length_c   3.64082789
_cell_angle_alpha   90.00000000
_cell_angle_beta   90.00000000
_cell_angle_gamma   90.00000000
_symmetry_Int_Tables_number   1
_chemical_formula_structural   Mo
_chemical_formula_sum   Mo16
_cell_volume   193.04584401
_cell_formula_units_Z   16
loop_
 _symmetry_equiv_pos_site_id
 _symmetry_equiv_pos_as_xyz
  1  'x, y, z'
loop_
 _atom_site_type_symbol
 _atom_site_label
 _atom_site_symmetry_multiplicity
 _atom_site_fract_x
 _atom_site_fract_y
 _atom_site_fract_z
 _atom_site_occupancy
  Mo  Mo0  1  0.00734121  0.00559248  0.00480365  1
  Mo  Mo1  1  1.79409000  1.83580000  -0.04540250  1
  Mo  Mo2  1  1.77568000  7.21171000  1.84091000  1
  Mo  Mo3  1  7.29752000  1.83511000  1.80832000  1
  Mo  Mo4  1  3.56151000  0.02223430  3.65989000  1
  Mo  Mo5  1  5.42386000  1.74606000  3.68106000  1
  Mo  Mo6  1  5.47948000  -0.00555362  1.82160000  1
  Mo  Mo7  1  3.55828000  1.85057000  1.81952000  1
  Mo  Mo8  1  7.32731000  3.63042000  -0.00698975  1
  Mo  Mo9  1  1.80780000  5.50917000  -0.05579500  1
  Mo  Mo10  1  1.88388000  3.68676000  1.84546000  1
  Mo  Mo11  1  7.21769000  5.40683000  1.80633000  1
  Mo  Mo12  1  3.73285000  3.67019000  3.58426000  1
  Mo  Mo13  1  5.53585000  5.46688000  0.06727670  1
  Mo  Mo14  1  5.45680000  3.59308000  1.81443000  1
  Mo  Mo15  1  3.64575000  5.47749000  1.82551000  1
