# generated using pymatgen
data_Mo
_symmetry_space_group_name_H-M   'P 1'
_cell_length_a   7.28165592
_cell_length_b   7.28165592
_cell_length_c   3.64082789
_cell_angle_alpha   90.00000000
_cell_angle_beta   90.00000000
_cell_angle_gamma   90.00000000
_symmetry_Int_Tables_number   1
_chemical_formula_structural   Mo
_chemical_formula_sum   Mo16
_cell_volume   193.04584401
_cell_formula_units_Z   16
loop_
 _symmetry_equiv_pos_site_id
 _symmetry_equiv_pos_as_xyz
  1  'x, y, z'
loop_
 _atom_site_type_symbol
 _atom_site_label
 _atom_site_symmetry_multiplicity
 _atom_site_fract_x
 _atom_site_fract_y
 _atom_site_fract_z
 _atom_site_occupancy
  Mo  Mo0  1  0.01603760  0.04680440  0.00336987  1
  Mo  Mo1  1  1.82736000  1.76039000  0.01744090  1
  Mo  Mo2  1  1.81674000  7.24655000  1.81186000  1
  Mo  Mo3  1  7.18590000  1.83622000  1.82307000  1
  Mo  Mo4  1  3.68206000  -0.00153452  3.60479000  1
  Mo  Mo5  1  5.48119000  1.84527000  3.64214000  1
  Mo  Mo6  1  5.50673000  -0.02864390  1.84292000  1
  Mo  Mo7  1  3.64482000  1.75013000  1.74994000  1
  Mo  Mo8  1  7.26489000  3.65577000  0.02550620  1
  Mo  Mo9  1  1.81277000  5.44991000  0.03511410  1
  Mo  Mo10  1  1.78363000  3.56485000  1.84314000  1
  Mo  Mo11  1  7.31054000  5.51398000  1.85358000  1
  Mo  Mo12  1  3.64568000  3.62485000  3.61798000  1
  Mo  Mo13  1  5.43394000  5.44651000  -0.03154150  1
  Mo  Mo14  1  5.47877000  3.72498000  1.80664000  1
  Mo  Mo15  1  3.61460000  5.50630000  1.82522000  1
