# generated using pymatgen
data_Mo
_symmetry_space_group_name_H-M   'P 1'
_cell_length_a   7.28165592
_cell_length_b   7.28165592
_cell_length_c   3.64082789
_cell_angle_alpha   90.00000000
_cell_angle_beta   90.00000000
_cell_angle_gamma   90.00000000
_symmetry_Int_Tables_number   1
_chemical_formula_structural   Mo
_chemical_formula_sum   Mo16
_cell_volume   193.04584401
_cell_formula_units_Z   16
loop_
 _symmetry_equiv_pos_site_id
 _symmetry_equiv_pos_as_xyz
  1  'x, y, z'
loop_
 _atom_site_type_symbol
 _atom_site_label
 _atom_site_symmetry_multiplicity
 _atom_site_fract_x
 _atom_site_fract_y
 _atom_site_fract_z
 _atom_site_occupancy
  Mo  Mo0  1  -0.03006600  0.00089338  0.02911760  1
  Mo  Mo1  1  1.83451000  1.74430000  -0.01076710  1
  Mo  Mo2  1  1.85211000  7.27174000  1.82311000  1
  Mo  Mo3  1  7.22197000  1.87350000  1.84991000  1
  Mo  Mo4  1  3.64232000  0.01226780  3.60381000  1
  Mo  Mo5  1  5.54987000  1.88094000  3.65734000  1
  Mo  Mo6  1  5.45947000  -0.05390020  1.82299000  1
  Mo  Mo7  1  3.71752000  1.84804000  1.77151000  1
  Mo  Mo8  1  7.29237000  3.68528000  0.00683076  1
  Mo  Mo9  1  1.76673000  5.38155000  0.01409070  1
  Mo  Mo10  1  1.87298000  3.62275000  1.83701000  1
  Mo  Mo11  1  7.31599000  5.46959000  1.81815000  1
  Mo  Mo12  1  3.65842000  3.59745000  3.58527000  1
  Mo  Mo13  1  5.37292000  5.48639000  0.05046370  1
  Mo  Mo14  1  5.42085000  3.68054000  1.78429000  1
  Mo  Mo15  1  3.55769000  5.44103000  1.82804000  1
