# generated using pymatgen
data_Mo
_symmetry_space_group_name_H-M   'P 1'
_cell_length_a   7.28165592
_cell_length_b   7.28165592
_cell_length_c   3.64082789
_cell_angle_alpha   90.00000000
_cell_angle_beta   90.00000000
_cell_angle_gamma   90.00000000
_symmetry_Int_Tables_number   1
_chemical_formula_structural   Mo
_chemical_formula_sum   Mo16
_cell_volume   193.04584401
_cell_formula_units_Z   16
loop_
 _symmetry_equiv_pos_site_id
 _symmetry_equiv_pos_as_xyz
  1  'x, y, z'
loop_
 _atom_site_type_symbol
 _atom_site_label
 _atom_site_symmetry_multiplicity
 _atom_site_fract_x
 _atom_site_fract_y
 _atom_site_fract_z
 _atom_site_occupancy
  Mo  Mo0  1  0.03994230  -0.01071040  0.03433250  1
  Mo  Mo1  1  1.80602000  1.80983000  0.01430800  1
  Mo  Mo2  1  1.85859000  7.28888000  1.79982000  1
  Mo  Mo3  1  7.28779000  1.81338000  1.84838000  1
  Mo  Mo4  1  3.66016000  -0.03755450  3.58852000  1
  Mo  Mo5  1  5.46810000  1.80845000  3.59806000  1
  Mo  Mo6  1  5.47452000  0.08606430  1.78227000  1
  Mo  Mo7  1  3.62419000  1.80229000  1.82529000  1
  Mo  Mo8  1  7.25383000  3.69951000  0.01544280  1
  Mo  Mo9  1  1.81524000  5.50089000  0.03991950  1
  Mo  Mo10  1  1.81269000  3.60507000  1.84895000  1
  Mo  Mo11  1  7.25700000  5.52732000  1.84292000  1
  Mo  Mo12  1  3.62475000  3.63684000  3.66871000  1
  Mo  Mo13  1  5.45059000  5.41679000  0.02862240  1
  Mo  Mo14  1  5.45161000  3.56154000  1.77058000  1
  Mo  Mo15  1  3.62063000  5.43375000  1.76505000  1
