# generated using pymatgen
data_Mo
_symmetry_space_group_name_H-M   'P 1'
_cell_length_a   7.28165592
_cell_length_b   7.28165592
_cell_length_c   3.64082789
_cell_angle_alpha   90.00000000
_cell_angle_beta   90.00000000
_cell_angle_gamma   90.00000000
_symmetry_Int_Tables_number   1
_chemical_formula_structural   Mo
_chemical_formula_sum   Mo16
_cell_volume   193.04584401
_cell_formula_units_Z   16
loop_
 _symmetry_equiv_pos_site_id
 _symmetry_equiv_pos_as_xyz
  1  'x, y, z'
loop_
 _atom_site_type_symbol
 _atom_site_label
 _atom_site_symmetry_multiplicity
 _atom_site_fract_x
 _atom_site_fract_y
 _atom_site_fract_z
 _atom_site_occupancy
  Mo  Mo0  1  -0.05289130  -0.02405200  -0.00440084  1
  Mo  Mo1  1  1.78213000  1.87203000  -0.03357350  1
  Mo  Mo2  1  1.84016000  7.34526000  1.84549000  1
  Mo  Mo3  1  7.24432000  1.79139000  1.86264000  1
  Mo  Mo4  1  3.66641000  -0.01318950  3.66908000  1
  Mo  Mo5  1  5.39620000  1.75186000  3.62053000  1
  Mo  Mo6  1  5.40378000  0.01976720  1.80762000  1
  Mo  Mo7  1  3.60882000  1.81099000  1.79925000  1
  Mo  Mo8  1  7.31612000  3.66756000  0.03119930  1
  Mo  Mo9  1  1.87431000  5.49154000  0.05458130  1
  Mo  Mo10  1  1.87974000  3.58987000  1.78487000  1
  Mo  Mo11  1  7.26228000  5.49024000  1.81018000  1
  Mo  Mo12  1  3.67846000  3.68226000  3.59469000  1
  Mo  Mo13  1  5.46458000  5.41586000  0.03033500  1
  Mo  Mo14  1  5.48333000  3.58783000  1.80812000  1
  Mo  Mo15  1  3.65790000  5.46311000  1.79055000  1
