# generated using pymatgen
data_Mo
_symmetry_space_group_name_H-M   'P 1'
_cell_length_a   7.28165592
_cell_length_b   7.28165592
_cell_length_c   3.64082789
_cell_angle_alpha   90.00000000
_cell_angle_beta   90.00000000
_cell_angle_gamma   90.00000000
_symmetry_Int_Tables_number   1
_chemical_formula_structural   Mo
_chemical_formula_sum   Mo16
_cell_volume   193.04584401
_cell_formula_units_Z   16
loop_
 _symmetry_equiv_pos_site_id
 _symmetry_equiv_pos_as_xyz
  1  'x, y, z'
loop_
 _atom_site_type_symbol
 _atom_site_label
 _atom_site_symmetry_multiplicity
 _atom_site_fract_x
 _atom_site_fract_y
 _atom_site_fract_z
 _atom_site_occupancy
  Mo  Mo0  1  -0.00782842  0.01041280  0.03098940  1
  Mo  Mo1  1  1.80755000  1.67900000  0.00114736  1
  Mo  Mo2  1  1.82247000  7.30768000  1.81746000  1
  Mo  Mo3  1  7.25785000  1.82769000  1.82047000  1
  Mo  Mo4  1  3.64649000  -0.07894810  3.56900000  1
  Mo  Mo5  1  5.50329000  1.80335000  3.62592000  1
  Mo  Mo6  1  5.39113000  0.03400750  1.81602000  1
  Mo  Mo7  1  3.63336000  1.83531000  1.78911000  1
  Mo  Mo8  1  7.26684000  3.67499000  0.01807380  1
  Mo  Mo9  1  1.80338000  5.48608000  0.05528290  1
  Mo  Mo10  1  1.80408000  3.59300000  1.78342000  1
  Mo  Mo11  1  7.30289000  5.50781000  1.91814000  1
  Mo  Mo12  1  3.63977000  3.64809000  3.58989000  1
  Mo  Mo13  1  5.43284000  5.51184000  0.00316056  1
  Mo  Mo14  1  5.52378000  3.63332000  1.84613000  1
  Mo  Mo15  1  3.67775000  5.46873000  1.78696000  1
