# generated using pymatgen
data_Mo
_symmetry_space_group_name_H-M   'P 1'
_cell_length_a   7.28165592
_cell_length_b   7.28165592
_cell_length_c   3.64082789
_cell_angle_alpha   90.00000000
_cell_angle_beta   90.00000000
_cell_angle_gamma   90.00000000
_symmetry_Int_Tables_number   1
_chemical_formula_structural   Mo
_chemical_formula_sum   Mo16
_cell_volume   193.04584401
_cell_formula_units_Z   16
loop_
 _symmetry_equiv_pos_site_id
 _symmetry_equiv_pos_as_xyz
  1  'x, y, z'
loop_
 _atom_site_type_symbol
 _atom_site_label
 _atom_site_symmetry_multiplicity
 _atom_site_fract_x
 _atom_site_fract_y
 _atom_site_fract_z
 _atom_site_occupancy
  Mo  Mo0  1  -0.00014172  -0.02099700  -0.01170730  1
  Mo  Mo1  1  1.75402000  1.86620000  -0.03364870  1
  Mo  Mo2  1  1.75716000  7.34548000  1.84223000  1
  Mo  Mo3  1  7.22440000  1.78306000  1.82506000  1
  Mo  Mo4  1  3.60487000  -0.02075070  3.67474000  1
  Mo  Mo5  1  5.40092000  1.78303000  3.60474000  1
  Mo  Mo6  1  5.47267000  -0.01941450  1.84085000  1
  Mo  Mo7  1  3.66300000  1.75874000  1.80288000  1
  Mo  Mo8  1  7.28418000  3.67764000  0.03682760  1
  Mo  Mo9  1  1.84892000  5.48145000  0.06713550  1
  Mo  Mo10  1  1.85439000  3.57886000  1.77824000  1
  Mo  Mo11  1  7.33445000  5.51069000  1.80311000  1
  Mo  Mo12  1  3.68958000  3.67519000  3.60355000  1
  Mo  Mo13  1  5.52440000  5.43773000  0.04093430  1
  Mo  Mo14  1  5.49553000  3.63424000  1.86220000  1
  Mo  Mo15  1  3.59730000  5.47118000  1.73404000  1
