# generated using pymatgen
data_Mo
_symmetry_space_group_name_H-M   'P 1'
_cell_length_a   7.28165592
_cell_length_b   7.28165592
_cell_length_c   3.64082789
_cell_angle_alpha   90.00000000
_cell_angle_beta   90.00000000
_cell_angle_gamma   90.00000000
_symmetry_Int_Tables_number   1
_chemical_formula_structural   Mo
_chemical_formula_sum   Mo16
_cell_volume   193.04584401
_cell_formula_units_Z   16
loop_
 _symmetry_equiv_pos_site_id
 _symmetry_equiv_pos_as_xyz
  1  'x, y, z'
loop_
 _atom_site_type_symbol
 _atom_site_label
 _atom_site_symmetry_multiplicity
 _atom_site_fract_x
 _atom_site_fract_y
 _atom_site_fract_z
 _atom_site_occupancy
  Mo  Mo0  1  -0.03635300  -0.03486780  0.04585870  1
  Mo  Mo1  1  1.79504000  1.74694000  -0.00881509  1
  Mo  Mo2  1  1.85088000  7.34825000  1.84562000  1
  Mo  Mo3  1  7.16561000  1.80517000  1.76820000  1
  Mo  Mo4  1  3.67864000  -0.01929810  3.60164000  1
  Mo  Mo5  1  5.51919000  1.77184000  3.67253000  1
  Mo  Mo6  1  5.40719000  -0.03967110  1.79709000  1
  Mo  Mo7  1  3.59893000  1.88973000  1.79916000  1
  Mo  Mo8  1  7.30413000  3.68075000  0.00947856  1
  Mo  Mo9  1  1.83119000  5.51879000  0.02640410  1
  Mo  Mo10  1  1.76986000  3.62140000  1.86410000  1
  Mo  Mo11  1  7.38226000  5.44271000  1.86889000  1
  Mo  Mo12  1  3.56974000  3.66091000  3.61840000  1
  Mo  Mo13  1  5.51375000  5.46547000  0.00892557  1
  Mo  Mo14  1  5.47256000  3.64899000  1.78191000  1
  Mo  Mo15  1  3.68305000  5.43524000  1.77178000  1
