# generated using pymatgen
data_Mo
_symmetry_space_group_name_H-M   'P 1'
_cell_length_a   7.28165592
_cell_length_b   7.28165592
_cell_length_c   3.64082789
_cell_angle_alpha   90.00000000
_cell_angle_beta   90.00000000
_cell_angle_gamma   90.00000000
_symmetry_Int_Tables_number   1
_chemical_formula_structural   Mo
_chemical_formula_sum   Mo16
_cell_volume   193.04584401
_cell_formula_units_Z   16
loop_
 _symmetry_equiv_pos_site_id
 _symmetry_equiv_pos_as_xyz
  1  'x, y, z'
loop_
 _atom_site_type_symbol
 _atom_site_label
 _atom_site_symmetry_multiplicity
 _atom_site_fract_x
 _atom_site_fract_y
 _atom_site_fract_z
 _atom_site_occupancy
  Mo  Mo0  1  -0.02683020  0.05163060  0.02696210  1
  Mo  Mo1  1  1.82113000  1.81554000  0.03989170  1
  Mo  Mo2  1  1.81949000  7.28776000  1.84853000  1
  Mo  Mo3  1  7.25338000  1.80210000  1.84207000  1
  Mo  Mo4  1  3.62527000  0.03768470  3.61172000  1
  Mo  Mo5  1  5.44929000  1.79744000  3.60720000  1
  Mo  Mo6  1  5.43871000  -0.05304630  1.81857000  1
  Mo  Mo7  1  3.63623000  1.81860000  1.74222000  1
  Mo  Mo8  1  7.28052000  3.61175000  0.02284560  1
  Mo  Mo9  1  1.86783000  5.50301000  -0.01706060  1
  Mo  Mo10  1  1.81283000  3.72540000  1.86454000  1
  Mo  Mo11  1  7.31025000  5.49421000  1.85240000  1
  Mo  Mo12  1  3.63781000  3.55064000  3.59101000  1
  Mo  Mo13  1  5.44892000  5.46774000  -0.04373340  1
  Mo  Mo14  1  5.44383000  3.60487000  1.80649000  1
  Mo  Mo15  1  3.68701000  5.42703000  1.85752000  1
