# generated using pymatgen
data_Mo
_symmetry_space_group_name_H-M   'P 1'
_cell_length_a   7.28165592
_cell_length_b   7.28165592
_cell_length_c   3.64082789
_cell_angle_alpha   90.00000000
_cell_angle_beta   90.00000000
_cell_angle_gamma   90.00000000
_symmetry_Int_Tables_number   1
_chemical_formula_structural   Mo
_chemical_formula_sum   Mo16
_cell_volume   193.04584401
_cell_formula_units_Z   16
loop_
 _symmetry_equiv_pos_site_id
 _symmetry_equiv_pos_as_xyz
  1  'x, y, z'
loop_
 _atom_site_type_symbol
 _atom_site_label
 _atom_site_symmetry_multiplicity
 _atom_site_fract_x
 _atom_site_fract_y
 _atom_site_fract_z
 _atom_site_occupancy
  Mo  Mo0  1  -0.03809960  0.00987778  0.01216760  1
  Mo  Mo1  1  1.80972000  1.80963000  -0.01242450  1
  Mo  Mo2  1  1.77300000  7.33019000  1.81382000  1
  Mo  Mo3  1  7.20213000  1.80193000  1.78928000  1
  Mo  Mo4  1  3.60395000  0.02583370  3.65738000  1
  Mo  Mo5  1  5.46077000  1.72500000  3.69987000  1
  Mo  Mo6  1  5.45891000  -0.08561890  1.80796000  1
  Mo  Mo7  1  3.61807000  1.85282000  1.83774000  1
  Mo  Mo8  1  7.29703000  3.58827000  0.00503943  1
  Mo  Mo9  1  1.82162000  5.48394000  -0.05904860  1
  Mo  Mo10  1  1.85503000  3.64740000  1.79136000  1
  Mo  Mo11  1  7.32877000  5.44378000  1.88382000  1
  Mo  Mo12  1  3.68207000  3.61874000  3.59906000  1
  Mo  Mo13  1  5.49074000  5.51973000  -0.00286699  1
  Mo  Mo14  1  5.46160000  3.67153000  1.79291000  1
  Mo  Mo15  1  3.68035000  5.49931000  1.85511000  1
