# generated using pymatgen
data_Mo
_symmetry_space_group_name_H-M   'P 1'
_cell_length_a   7.27808089
_cell_length_b   7.27808089
_cell_length_c   3.63904047
_cell_angle_alpha   90.00000000
_cell_angle_beta   90.00000000
_cell_angle_gamma   90.00000000
_symmetry_Int_Tables_number   1
_chemical_formula_structural   Mo
_chemical_formula_sum   Mo16
_cell_volume   192.76165285
_cell_formula_units_Z   16
loop_
 _symmetry_equiv_pos_site_id
 _symmetry_equiv_pos_as_xyz
  1  'x, y, z'
loop_
 _atom_site_type_symbol
 _atom_site_label
 _atom_site_symmetry_multiplicity
 _atom_site_fract_x
 _atom_site_fract_y
 _atom_site_fract_z
 _atom_site_occupancy
  Mo  Mo0  1  0.00333840  7.28468000  -0.00358119  1
  Mo  Mo1  1  1.81861000  1.82163000  -0.00497101  1
  Mo  Mo2  1  1.80766000  7.27233000  1.81039000  1
  Mo  Mo3  1  7.27718000  1.81557000  1.82137000  1
  Mo  Mo4  1  3.64309000  7.28364000  3.65440000  1
  Mo  Mo5  1  5.45102000  1.82757000  -0.00970294  1
  Mo  Mo6  1  5.45497000  -0.00562197  1.80859000  1
  Mo  Mo7  1  3.63666000  1.81506000  1.82150000  1
  Mo  Mo8  1  7.27728000  3.64237000  3.63183000  1
  Mo  Mo9  1  1.82402000  5.44938000  3.64443000  1
  Mo  Mo10  1  1.81932000  3.63767000  1.82349000  1
  Mo  Mo11  1  7.27564000  5.44956000  1.81928000  1
  Mo  Mo12  1  3.63292000  3.63822000  -0.00980790  1
  Mo  Mo13  1  5.46849000  5.46186000  3.65208000  1
  Mo  Mo14  1  5.45892000  3.64736000  1.82848000  1
  Mo  Mo15  1  3.65295000  5.46080000  1.82422000  1
