# generated using pymatgen
data_Mo
_symmetry_space_group_name_H-M   'P 1'
_cell_length_a   7.28165592
_cell_length_b   7.28165592
_cell_length_c   3.64082789
_cell_angle_alpha   90.00000000
_cell_angle_beta   90.00000000
_cell_angle_gamma   90.00000000
_symmetry_Int_Tables_number   1
_chemical_formula_structural   Mo
_chemical_formula_sum   Mo16
_cell_volume   193.04584401
_cell_formula_units_Z   16
loop_
 _symmetry_equiv_pos_site_id
 _symmetry_equiv_pos_as_xyz
  1  'x, y, z'
loop_
 _atom_site_type_symbol
 _atom_site_label
 _atom_site_symmetry_multiplicity
 _atom_site_fract_x
 _atom_site_fract_y
 _atom_site_fract_z
 _atom_site_occupancy
  Mo  Mo0  1  0.03757490  -0.01327910  0.00496946  1
  Mo  Mo1  1  1.82987000  1.85892000  0.00097358  1
  Mo  Mo2  1  1.80117000  7.24967000  1.82663000  1
  Mo  Mo3  1  7.37341000  1.85606000  1.81286000  1
  Mo  Mo4  1  3.55607000  -0.01557970  3.64520000  1
  Mo  Mo5  1  5.54075000  1.78604000  3.64383000  1
  Mo  Mo6  1  5.43934000  0.00831849  1.85961000  1
  Mo  Mo7  1  3.69453000  1.78586000  1.81497000  1
  Mo  Mo8  1  7.27116000  3.65544000  -0.02716140  1
  Mo  Mo9  1  1.76426000  5.45272000  0.00627577  1
  Mo  Mo10  1  1.86327000  3.63358000  1.80874000  1
  Mo  Mo11  1  7.17021000  5.44118000  1.84713000  1
  Mo  Mo12  1  3.63331000  3.65684000  3.59690000  1
  Mo  Mo13  1  5.47256000  5.46006000  -0.00327520  1
  Mo  Mo14  1  5.43076000  3.64019000  1.81558000  1
  Mo  Mo15  1  3.62740000  5.48631000  1.81795000  1
