# generated using pymatgen
data_Mo
_symmetry_space_group_name_H-M   'P 1'
_cell_length_a   7.28165592
_cell_length_b   7.28165592
_cell_length_c   3.64082789
_cell_angle_alpha   90.00000000
_cell_angle_beta   90.00000000
_cell_angle_gamma   90.00000000
_symmetry_Int_Tables_number   1
_chemical_formula_structural   Mo
_chemical_formula_sum   Mo16
_cell_volume   193.04584401
_cell_formula_units_Z   16
loop_
 _symmetry_equiv_pos_site_id
 _symmetry_equiv_pos_as_xyz
  1  'x, y, z'
loop_
 _atom_site_type_symbol
 _atom_site_label
 _atom_site_symmetry_multiplicity
 _atom_site_fract_x
 _atom_site_fract_y
 _atom_site_fract_z
 _atom_site_occupancy
  Mo  Mo0  1  -0.00750880  -0.06413140  -0.00612755  1
  Mo  Mo1  1  1.84075000  1.85621000  0.04408520  1
  Mo  Mo2  1  1.72104000  7.28697000  1.75897000  1
  Mo  Mo3  1  7.34943000  1.75844000  1.86679000  1
  Mo  Mo4  1  3.62046000  -0.01360880  3.64011000  1
  Mo  Mo5  1  5.45277000  1.79602000  3.62623000  1
  Mo  Mo6  1  5.47014000  0.02651860  1.90013000  1
  Mo  Mo7  1  3.60023000  1.79330000  1.82494000  1
  Mo  Mo8  1  7.25483000  3.59449000  -0.04262510  1
  Mo  Mo9  1  1.77752000  5.42813000  -0.03214590  1
  Mo  Mo10  1  1.84800000  3.72101000  1.75639000  1
  Mo  Mo11  1  7.27791000  5.46428000  1.78432000  1
  Mo  Mo12  1  3.63518000  3.68872000  3.69245000  1
  Mo  Mo13  1  5.45790000  5.47736000  -0.02539400  1
  Mo  Mo14  1  5.46233000  3.59051000  1.82790000  1
  Mo  Mo15  1  3.74469000  5.53810000  1.85516000  1
