# generated using pymatgen
data_Mo
_symmetry_space_group_name_H-M   'P 1'
_cell_length_a   7.28165592
_cell_length_b   7.28165592
_cell_length_c   3.64082789
_cell_angle_alpha   90.00000000
_cell_angle_beta   90.00000000
_cell_angle_gamma   90.00000000
_symmetry_Int_Tables_number   1
_chemical_formula_structural   Mo
_chemical_formula_sum   Mo16
_cell_volume   193.04584401
_cell_formula_units_Z   16
loop_
 _symmetry_equiv_pos_site_id
 _symmetry_equiv_pos_as_xyz
  1  'x, y, z'
loop_
 _atom_site_type_symbol
 _atom_site_label
 _atom_site_symmetry_multiplicity
 _atom_site_fract_x
 _atom_site_fract_y
 _atom_site_fract_z
 _atom_site_occupancy
  Mo  Mo0  1  -0.00088836  -0.05153270  -0.03794990  1
  Mo  Mo1  1  1.83173000  1.79553000  0.00907360  1
  Mo  Mo2  1  1.86831000  7.40154000  1.81814000  1
  Mo  Mo3  1  7.26883000  1.82901000  1.77949000  1
  Mo  Mo4  1  3.63745000  -0.02126150  3.66492000  1
  Mo  Mo5  1  5.48605000  1.82683000  3.68339000  1
  Mo  Mo6  1  5.42774000  -0.04516790  1.79534000  1
  Mo  Mo7  1  3.67197000  1.89854000  1.92936000  1
  Mo  Mo8  1  7.23865000  3.64416000  -0.05446780  1
  Mo  Mo9  1  1.82330000  5.48360000  0.01348010  1
  Mo  Mo10  1  1.82052000  3.62563000  1.77771000  1
  Mo  Mo11  1  7.33020000  5.40980000  1.80241000  1
  Mo  Mo12  1  3.58927000  3.65637000  3.67730000  1
  Mo  Mo13  1  5.46176000  5.41395000  -0.02537330  1
  Mo  Mo14  1  5.45367000  3.64172000  1.83362000  1
  Mo  Mo15  1  3.59708000  5.43362000  1.80472000  1
