# generated using pymatgen
data_Mo
_symmetry_space_group_name_H-M   'P 1'
_cell_length_a   7.28165592
_cell_length_b   7.28165592
_cell_length_c   3.64082789
_cell_angle_alpha   90.00000000
_cell_angle_beta   90.00000000
_cell_angle_gamma   90.00000000
_symmetry_Int_Tables_number   1
_chemical_formula_structural   Mo
_chemical_formula_sum   Mo16
_cell_volume   193.04584401
_cell_formula_units_Z   16
loop_
 _symmetry_equiv_pos_site_id
 _symmetry_equiv_pos_as_xyz
  1  'x, y, z'
loop_
 _atom_site_type_symbol
 _atom_site_label
 _atom_site_symmetry_multiplicity
 _atom_site_fract_x
 _atom_site_fract_y
 _atom_site_fract_z
 _atom_site_occupancy
  Mo  Mo0  1  0.04310120  -0.04296890  -0.01669750  1
  Mo  Mo1  1  1.74851000  1.86598000  0.00701226  1
  Mo  Mo2  1  1.77587000  7.21774000  1.80708000  1
  Mo  Mo3  1  7.32683000  1.85187000  1.83480000  1
  Mo  Mo4  1  3.59511000  -0.02707440  3.66836000  1
  Mo  Mo5  1  5.48809000  1.78652000  3.68860000  1
  Mo  Mo6  1  5.47228000  -0.02014610  1.83591000  1
  Mo  Mo7  1  3.69293000  1.80679000  1.86818000  1
  Mo  Mo8  1  7.29287000  3.67216000  -0.03843660  1
  Mo  Mo9  1  1.78175000  5.48201000  -0.03609500  1
  Mo  Mo10  1  1.86343000  3.67756000  1.79794000  1
  Mo  Mo11  1  7.23739000  5.44466000  1.76191000  1
  Mo  Mo12  1  3.61550000  3.67594000  3.64827000  1
  Mo  Mo13  1  5.51695000  5.44791000  -0.00795294  1
  Mo  Mo14  1  5.42159000  3.61517000  1.83494000  1
  Mo  Mo15  1  3.63345000  5.48822000  1.81735000  1
