# generated using pymatgen
data_Mo
_symmetry_space_group_name_H-M   'P 1'
_cell_length_a   7.28165592
_cell_length_b   7.28165592
_cell_length_c   3.64082789
_cell_angle_alpha   90.00000000
_cell_angle_beta   90.00000000
_cell_angle_gamma   90.00000000
_symmetry_Int_Tables_number   1
_chemical_formula_structural   Mo
_chemical_formula_sum   Mo16
_cell_volume   193.04584401
_cell_formula_units_Z   16
loop_
 _symmetry_equiv_pos_site_id
 _symmetry_equiv_pos_as_xyz
  1  'x, y, z'
loop_
 _atom_site_type_symbol
 _atom_site_label
 _atom_site_symmetry_multiplicity
 _atom_site_fract_x
 _atom_site_fract_y
 _atom_site_fract_z
 _atom_site_occupancy
  Mo  Mo0  1  -0.00375568  0.02034970  -0.01753400  1
  Mo  Mo1  1  1.77314000  1.90113000  0.00459513  1
  Mo  Mo2  1  1.92319000  7.22474000  1.83871000  1
  Mo  Mo3  1  7.38351000  1.78340000  1.83934000  1
  Mo  Mo4  1  3.63169000  0.01719540  3.66905000  1
  Mo  Mo5  1  5.44181000  1.90053000  3.62107000  1
  Mo  Mo6  1  5.43348000  0.01385510  1.78926000  1
  Mo  Mo7  1  3.60754000  1.81502000  1.85368000  1
  Mo  Mo8  1  7.26492000  3.56176000  -0.03650000  1
  Mo  Mo9  1  1.85940000  5.45825000  -0.07771840  1
  Mo  Mo10  1  1.74690000  3.71295000  1.84630000  1
  Mo  Mo11  1  7.23244000  5.45417000  1.72242000  1
  Mo  Mo12  1  3.62720000  3.62952000  3.69530000  1
  Mo  Mo13  1  5.48850000  5.39750000  0.04310200  1
  Mo  Mo14  1  5.43920000  3.64240000  1.80284000  1
  Mo  Mo15  1  3.65648000  5.40958000  1.87726000  1
