# generated using pymatgen
data_Mo
_symmetry_space_group_name_H-M   'P 1'
_cell_length_a   7.28165592
_cell_length_b   7.28165592
_cell_length_c   3.64082789
_cell_angle_alpha   90.00000000
_cell_angle_beta   90.00000000
_cell_angle_gamma   90.00000000
_symmetry_Int_Tables_number   1
_chemical_formula_structural   Mo
_chemical_formula_sum   Mo16
_cell_volume   193.04584401
_cell_formula_units_Z   16
loop_
 _symmetry_equiv_pos_site_id
 _symmetry_equiv_pos_as_xyz
  1  'x, y, z'
loop_
 _atom_site_type_symbol
 _atom_site_label
 _atom_site_symmetry_multiplicity
 _atom_site_fract_x
 _atom_site_fract_y
 _atom_site_fract_z
 _atom_site_occupancy
  Mo  Mo0  1  0.01043360  -0.02285950  -0.04411810  1
  Mo  Mo1  1  1.84935000  1.72872000  0.05279540  1
  Mo  Mo2  1  1.86733000  7.32270000  1.78699000  1
  Mo  Mo3  1  7.25766000  1.81389000  1.85571000  1
  Mo  Mo4  1  3.70698000  -0.04648520  3.64340000  1
  Mo  Mo5  1  5.48582000  1.79664000  3.62617000  1
  Mo  Mo6  1  5.46332000  0.02850950  1.82924000  1
  Mo  Mo7  1  3.68015000  1.85656000  1.82105000  1
  Mo  Mo8  1  7.23308000  3.69803000  -0.01444380  1
  Mo  Mo9  1  1.77877000  5.44622000  0.00892688  1
  Mo  Mo10  1  1.78318000  3.60086000  1.83200000  1
  Mo  Mo11  1  7.31860000  5.49558000  1.77927000  1
  Mo  Mo12  1  3.55334000  3.62391000  3.63433000  1
  Mo  Mo13  1  5.45847000  5.51836000  -0.00415444  1
  Mo  Mo14  1  5.43994000  3.65945000  1.80217000  1
  Mo  Mo15  1  3.61924000  5.42225000  1.86183000  1
