# generated using pymatgen
data_Mo
_symmetry_space_group_name_H-M   'P 1'
_cell_length_a   7.28165592
_cell_length_b   7.28165592
_cell_length_c   3.64082789
_cell_angle_alpha   90.00000000
_cell_angle_beta   90.00000000
_cell_angle_gamma   90.00000000
_symmetry_Int_Tables_number   1
_chemical_formula_structural   Mo
_chemical_formula_sum   Mo16
_cell_volume   193.04584401
_cell_formula_units_Z   16
loop_
 _symmetry_equiv_pos_site_id
 _symmetry_equiv_pos_as_xyz
  1  'x, y, z'
loop_
 _atom_site_type_symbol
 _atom_site_label
 _atom_site_symmetry_multiplicity
 _atom_site_fract_x
 _atom_site_fract_y
 _atom_site_fract_z
 _atom_site_occupancy
  Mo  Mo0  1  0.00746549  0.01744310  0.00483572  1
  Mo  Mo1  1  1.82258000  1.83529000  0.02087710  1
  Mo  Mo2  1  1.82780000  7.23678000  1.82076000  1
  Mo  Mo3  1  7.27366000  1.83822000  1.81075000  1
  Mo  Mo4  1  3.56686000  0.02002110  3.59504000  1
  Mo  Mo5  1  5.49023000  1.77768000  3.60762000  1
  Mo  Mo6  1  5.43139000  0.10289400  1.79864000  1
  Mo  Mo7  1  3.66705000  1.79623000  1.75395000  1
  Mo  Mo8  1  7.26420000  3.62977000  0.00909422  1
  Mo  Mo9  1  1.84635000  5.39631000  0.04826360  1
  Mo  Mo10  1  1.88070000  3.61404000  1.83306000  1
  Mo  Mo11  1  7.23480000  5.44827000  1.86340000  1
  Mo  Mo12  1  3.62342000  3.62859000  3.62165000  1
  Mo  Mo13  1  5.50252000  5.51718000  0.00637321  1
  Mo  Mo14  1  5.39411000  3.61204000  1.83776000  1
  Mo  Mo15  1  3.67251000  5.47160000  1.83908000  1
