# generated using pymatgen
data_Mo
_symmetry_space_group_name_H-M   'P 1'
_cell_length_a   7.28165592
_cell_length_b   7.28165592
_cell_length_c   3.64082789
_cell_angle_alpha   90.00000000
_cell_angle_beta   90.00000000
_cell_angle_gamma   90.00000000
_symmetry_Int_Tables_number   1
_chemical_formula_structural   Mo
_chemical_formula_sum   Mo16
_cell_volume   193.04584401
_cell_formula_units_Z   16
loop_
 _symmetry_equiv_pos_site_id
 _symmetry_equiv_pos_as_xyz
  1  'x, y, z'
loop_
 _atom_site_type_symbol
 _atom_site_label
 _atom_site_symmetry_multiplicity
 _atom_site_fract_x
 _atom_site_fract_y
 _atom_site_fract_z
 _atom_site_occupancy
  Mo  Mo0  1  0.00574155  0.01704110  0.00196049  1
  Mo  Mo1  1  1.78724000  1.78586000  -0.03552020  1
  Mo  Mo2  1  1.89825000  7.31048000  1.81605000  1
  Mo  Mo3  1  7.26979000  1.85959000  1.80381000  1
  Mo  Mo4  1  3.65733000  0.01903870  3.58142000  1
  Mo  Mo5  1  5.49170000  1.86749000  3.68268000  1
  Mo  Mo6  1  5.46443000  -0.07031850  1.78307000  1
  Mo  Mo7  1  3.61638000  1.82142000  1.81496000  1
  Mo  Mo8  1  7.30900000  3.66808000  0.03589590  1
  Mo  Mo9  1  1.79433000  5.40085000  0.01458570  1
  Mo  Mo10  1  1.82974000  3.61421000  1.83252000  1
  Mo  Mo11  1  7.31781000  5.47627000  1.88136000  1
  Mo  Mo12  1  3.60630000  3.57825000  3.59743000  1
  Mo  Mo13  1  5.42201000  5.47706000  0.05258620  1
  Mo  Mo14  1  5.40776000  3.65998000  1.83397000  1
  Mo  Mo15  1  3.62783000  5.45704000  1.77439000  1
