# generated using pymatgen
data_Mo
_symmetry_space_group_name_H-M   'P 1'
_cell_length_a   7.27808089
_cell_length_b   7.27808089
_cell_length_c   3.63904047
_cell_angle_alpha   90.00000000
_cell_angle_beta   90.00000000
_cell_angle_gamma   90.00000000
_symmetry_Int_Tables_number   1
_chemical_formula_structural   Mo
_chemical_formula_sum   Mo16
_cell_volume   192.76165285
_cell_formula_units_Z   16
loop_
 _symmetry_equiv_pos_site_id
 _symmetry_equiv_pos_as_xyz
  1  'x, y, z'
loop_
 _atom_site_type_symbol
 _atom_site_label
 _atom_site_symmetry_multiplicity
 _atom_site_fract_x
 _atom_site_fract_y
 _atom_site_fract_z
 _atom_site_occupancy
  Mo  Mo0  1  0.00379768  7.29395000  0.01030040  1
  Mo  Mo1  1  1.81160000  1.81109000  0.00073725  1
  Mo  Mo2  1  1.81600000  7.27201000  1.80872000  1
  Mo  Mo3  1  7.27868000  1.82687000  1.83396000  1
  Mo  Mo4  1  3.65308000  7.28158000  3.63722000  1
  Mo  Mo5  1  5.46584000  1.81292000  0.00593500  1
  Mo  Mo6  1  5.45364000  -0.00034064  1.82067000  1
  Mo  Mo7  1  3.64666000  1.82329000  1.82633000  1
  Mo  Mo8  1  7.27313000  3.64017000  3.62899000  1
  Mo  Mo9  1  1.80658000  5.45317000  3.64440000  1
  Mo  Mo10  1  1.83330000  3.64579000  1.83163000  1
  Mo  Mo11  1  7.26945000  5.45975000  1.81649000  1
  Mo  Mo12  1  3.64647000  3.63784000  -0.00826825  1
  Mo  Mo13  1  5.45850000  5.44536000  3.63366000  1
  Mo  Mo14  1  5.45680000  3.62894000  1.82032000  1
  Mo  Mo15  1  3.62854000  5.46967000  1.80091000  1
