# generated using pymatgen
data_Mo
_symmetry_space_group_name_H-M   'P 1'
_cell_length_a   7.28165592
_cell_length_b   7.28165592
_cell_length_c   3.64082789
_cell_angle_alpha   90.00000000
_cell_angle_beta   90.00000000
_cell_angle_gamma   90.00000000
_symmetry_Int_Tables_number   1
_chemical_formula_structural   Mo
_chemical_formula_sum   Mo16
_cell_volume   193.04584401
_cell_formula_units_Z   16
loop_
 _symmetry_equiv_pos_site_id
 _symmetry_equiv_pos_as_xyz
  1  'x, y, z'
loop_
 _atom_site_type_symbol
 _atom_site_label
 _atom_site_symmetry_multiplicity
 _atom_site_fract_x
 _atom_site_fract_y
 _atom_site_fract_z
 _atom_site_occupancy
  Mo  Mo0  1  0.06442320  0.05708720  -0.01061160  1
  Mo  Mo1  1  1.85490000  1.81227000  0.02015230  1
  Mo  Mo2  1  1.84838000  7.24037000  1.83086000  1
  Mo  Mo3  1  7.30548000  1.89104000  1.79288000  1
  Mo  Mo4  1  3.65239000  -0.00383093  3.64268000  1
  Mo  Mo5  1  5.46153000  1.79095000  3.66966000  1
  Mo  Mo6  1  5.51135000  0.01129520  1.74477000  1
  Mo  Mo7  1  3.63059000  1.84630000  1.82300000  1
  Mo  Mo8  1  7.26322000  3.64260000  0.02800030  1
  Mo  Mo9  1  1.78267000  5.41319000  -0.01529240  1
  Mo  Mo10  1  1.82548000  3.62287000  1.86646000  1
  Mo  Mo11  1  7.23039000  5.42583000  1.84265000  1
  Mo  Mo12  1  3.65326000  3.60026000  3.61767000  1
  Mo  Mo13  1  5.43424000  5.49992000  0.00344175  1
  Mo  Mo14  1  5.36154000  3.67086000  1.77592000  1
  Mo  Mo15  1  3.62581000  5.42132000  1.83893000  1
