# generated using pymatgen
data_Mo
_symmetry_space_group_name_H-M   'P 1'
_cell_length_a   7.28165592
_cell_length_b   7.28165592
_cell_length_c   3.64082789
_cell_angle_alpha   90.00000000
_cell_angle_beta   90.00000000
_cell_angle_gamma   90.00000000
_symmetry_Int_Tables_number   1
_chemical_formula_structural   Mo
_chemical_formula_sum   Mo16
_cell_volume   193.04584401
_cell_formula_units_Z   16
loop_
 _symmetry_equiv_pos_site_id
 _symmetry_equiv_pos_as_xyz
  1  'x, y, z'
loop_
 _atom_site_type_symbol
 _atom_site_label
 _atom_site_symmetry_multiplicity
 _atom_site_fract_x
 _atom_site_fract_y
 _atom_site_fract_z
 _atom_site_occupancy
  Mo  Mo0  1  -0.00087689  0.03381330  -0.04474010  1
  Mo  Mo1  1  1.80628000  1.81677000  0.01139620  1
  Mo  Mo2  1  1.91293000  7.22846000  1.74993000  1
  Mo  Mo3  1  7.34063000  1.78398000  1.81059000  1
  Mo  Mo4  1  3.67710000  0.05942640  3.68057000  1
  Mo  Mo5  1  5.42016000  1.88863000  3.62980000  1
  Mo  Mo6  1  5.49544000  -0.00185713  1.87132000  1
  Mo  Mo7  1  3.68330000  1.78226000  1.84444000  1
  Mo  Mo8  1  7.30784000  3.62932000  0.00295506  1
  Mo  Mo9  1  1.84272000  5.43067000  -0.00879938  1
  Mo  Mo10  1  1.76376000  3.61181000  1.80748000  1
  Mo  Mo11  1  7.17790000  5.52164000  1.76620000  1
  Mo  Mo12  1  3.59281000  3.60530000  3.68080000  1
  Mo  Mo13  1  5.42237000  5.42154000  0.00904458  1
  Mo  Mo14  1  5.50653000  3.69714000  1.84428000  1
  Mo  Mo15  1  3.55677000  5.43346000  1.81590000  1
