# generated using pymatgen
data_Mo
_symmetry_space_group_name_H-M   'P 1'
_cell_length_a   7.28165592
_cell_length_b   7.28165592
_cell_length_c   3.64082789
_cell_angle_alpha   90.00000000
_cell_angle_beta   90.00000000
_cell_angle_gamma   90.00000000
_symmetry_Int_Tables_number   1
_chemical_formula_structural   Mo
_chemical_formula_sum   Mo16
_cell_volume   193.04584401
_cell_formula_units_Z   16
loop_
 _symmetry_equiv_pos_site_id
 _symmetry_equiv_pos_as_xyz
  1  'x, y, z'
loop_
 _atom_site_type_symbol
 _atom_site_label
 _atom_site_symmetry_multiplicity
 _atom_site_fract_x
 _atom_site_fract_y
 _atom_site_fract_z
 _atom_site_occupancy
  Mo  Mo0  1  0.00722702  0.02458810  0.00485653  1
  Mo  Mo1  1  1.89355000  1.80233000  0.06211630  1
  Mo  Mo2  1  1.78055000  7.25640000  1.77888000  1
  Mo  Mo3  1  7.29991000  1.86152000  1.84998000  1
  Mo  Mo4  1  3.64730000  -0.04438820  3.59829000  1
  Mo  Mo5  1  5.45636000  1.85900000  3.59027000  1
  Mo  Mo6  1  5.51303000  0.06609440  1.84451000  1
  Mo  Mo7  1  3.58217000  1.77275000  1.75647000  1
  Mo  Mo8  1  7.21105000  3.65028000  0.00281756  1
  Mo  Mo9  1  1.78926000  5.38633000  0.03553670  1
  Mo  Mo10  1  1.85001000  3.65149000  1.79430000  1
  Mo  Mo11  1  7.26400000  5.51132000  1.85691000  1
  Mo  Mo12  1  3.60179000  3.59455000  3.66180000  1
  Mo  Mo13  1  5.45761000  5.46012000  -0.03030800  1
  Mo  Mo14  1  5.43240000  3.62825000  1.79898000  1
  Mo  Mo15  1  3.71941000  5.46172000  1.86577000  1
