# generated using pymatgen
data_Mo
_symmetry_space_group_name_H-M   'P 1'
_cell_length_a   7.28165592
_cell_length_b   7.28165592
_cell_length_c   3.64082789
_cell_angle_alpha   90.00000000
_cell_angle_beta   90.00000000
_cell_angle_gamma   90.00000000
_symmetry_Int_Tables_number   1
_chemical_formula_structural   Mo
_chemical_formula_sum   Mo16
_cell_volume   193.04584401
_cell_formula_units_Z   16
loop_
 _symmetry_equiv_pos_site_id
 _symmetry_equiv_pos_as_xyz
  1  'x, y, z'
loop_
 _atom_site_type_symbol
 _atom_site_label
 _atom_site_symmetry_multiplicity
 _atom_site_fract_x
 _atom_site_fract_y
 _atom_site_fract_z
 _atom_site_occupancy
  Mo  Mo0  1  0.06021270  0.00239750  0.02743890  1
  Mo  Mo1  1  1.78230000  1.86065000  -0.00504692  1
  Mo  Mo2  1  1.82667000  7.31435000  1.81381000  1
  Mo  Mo3  1  7.27299000  1.85893000  1.84292000  1
  Mo  Mo4  1  3.64185000  -0.05431420  3.59465000  1
  Mo  Mo5  1  5.45792000  1.83323000  3.56861000  1
  Mo  Mo6  1  5.50119000  -0.00808435  1.83614000  1
  Mo  Mo7  1  3.68405000  1.74106000  1.79308000  1
  Mo  Mo8  1  7.26912000  3.71694000  -0.01311080  1
  Mo  Mo9  1  1.80935000  5.43464000  0.07571100  1
  Mo  Mo10  1  1.78591000  3.53250000  1.86790000  1
  Mo  Mo11  1  7.29463000  5.50844000  1.78557000  1
  Mo  Mo12  1  3.62575000  3.65439000  3.68158000  1
  Mo  Mo13  1  5.48504000  5.43052000  0.03050590  1
  Mo  Mo14  1  5.48598000  3.67593000  1.80756000  1
  Mo  Mo15  1  3.52270000  5.44076000  1.76384000  1
