# generated using pymatgen
data_Mo
_symmetry_space_group_name_H-M   'P 1'
_cell_length_a   7.28165592
_cell_length_b   7.28165592
_cell_length_c   3.64082789
_cell_angle_alpha   90.00000000
_cell_angle_beta   90.00000000
_cell_angle_gamma   90.00000000
_symmetry_Int_Tables_number   1
_chemical_formula_structural   Mo
_chemical_formula_sum   Mo16
_cell_volume   193.04584401
_cell_formula_units_Z   16
loop_
 _symmetry_equiv_pos_site_id
 _symmetry_equiv_pos_as_xyz
  1  'x, y, z'
loop_
 _atom_site_type_symbol
 _atom_site_label
 _atom_site_symmetry_multiplicity
 _atom_site_fract_x
 _atom_site_fract_y
 _atom_site_fract_z
 _atom_site_occupancy
  Mo  Mo0  1  -0.02491240  -0.05472150  0.03762350  1
  Mo  Mo1  1  1.82240000  1.84492000  -0.02058020  1
  Mo  Mo2  1  1.75642000  7.29119000  1.83490000  1
  Mo  Mo3  1  7.28378000  1.82002000  1.81463000  1
  Mo  Mo4  1  3.63723000  -0.01522170  3.65806000  1
  Mo  Mo5  1  5.47573000  1.87115000  3.64509000  1
  Mo  Mo6  1  5.44139000  -0.00923616  1.84223000  1
  Mo  Mo7  1  3.75768000  1.79361000  1.83834000  1
  Mo  Mo8  1  7.26715000  3.67720000  -0.02112250  1
  Mo  Mo9  1  1.87598000  5.48279000  0.03833180  1
  Mo  Mo10  1  1.82665000  3.54855000  1.80916000  1
  Mo  Mo11  1  7.25311000  5.42975000  1.84043000  1
  Mo  Mo12  1  3.67241000  3.63978000  3.66161000  1
  Mo  Mo13  1  5.40231000  5.42773000  -0.08163330  1
  Mo  Mo14  1  5.48087000  3.75570000  1.79261000  1
  Mo  Mo15  1  3.57748000  5.43914000  1.78150000  1
