# generated using pymatgen
data_Mo
_symmetry_space_group_name_H-M   'P 1'
_cell_length_a   7.28165592
_cell_length_b   7.28165592
_cell_length_c   3.64082789
_cell_angle_alpha   90.00000000
_cell_angle_beta   90.00000000
_cell_angle_gamma   90.00000000
_symmetry_Int_Tables_number   1
_chemical_formula_structural   Mo
_chemical_formula_sum   Mo16
_cell_volume   193.04584401
_cell_formula_units_Z   16
loop_
 _symmetry_equiv_pos_site_id
 _symmetry_equiv_pos_as_xyz
  1  'x, y, z'
loop_
 _atom_site_type_symbol
 _atom_site_label
 _atom_site_symmetry_multiplicity
 _atom_site_fract_x
 _atom_site_fract_y
 _atom_site_fract_z
 _atom_site_occupancy
  Mo  Mo0  1  -0.00892779  -0.02229580  0.02546740  1
  Mo  Mo1  1  1.84203000  1.77067000  0.00303601  1
  Mo  Mo2  1  1.77562000  7.26609000  1.80911000  1
  Mo  Mo3  1  7.30010000  1.80924000  1.79700000  1
  Mo  Mo4  1  3.66500000  -0.00948599  3.65321000  1
  Mo  Mo5  1  5.47689000  1.75763000  3.62689000  1
  Mo  Mo6  1  5.42449000  0.01782710  1.88725000  1
  Mo  Mo7  1  3.58767000  1.86905000  1.79094000  1
  Mo  Mo8  1  7.28864000  3.66021000  -0.01848180  1
  Mo  Mo9  1  1.82889000  5.52397000  0.03333690  1
  Mo  Mo10  1  1.78573000  3.62573000  1.80594000  1
  Mo  Mo11  1  7.22056000  5.47369000  1.84612000  1
  Mo  Mo12  1  3.65555000  3.66980000  3.64066000  1
  Mo  Mo13  1  5.41898000  5.46299000  -0.05595230  1
  Mo  Mo14  1  5.55122000  3.59185000  1.81551000  1
  Mo  Mo15  1  3.69321000  5.47538000  1.81114000  1
