# generated using pymatgen
data_Mo
_symmetry_space_group_name_H-M   'P 1'
_cell_length_a   7.28165592
_cell_length_b   7.28165592
_cell_length_c   3.64082789
_cell_angle_alpha   90.00000000
_cell_angle_beta   90.00000000
_cell_angle_gamma   90.00000000
_symmetry_Int_Tables_number   1
_chemical_formula_structural   Mo
_chemical_formula_sum   Mo16
_cell_volume   193.04584401
_cell_formula_units_Z   16
loop_
 _symmetry_equiv_pos_site_id
 _symmetry_equiv_pos_as_xyz
  1  'x, y, z'
loop_
 _atom_site_type_symbol
 _atom_site_label
 _atom_site_symmetry_multiplicity
 _atom_site_fract_x
 _atom_site_fract_y
 _atom_site_fract_z
 _atom_site_occupancy
  Mo  Mo0  1  -0.03650110  0.00341541  0.01273000  1
  Mo  Mo1  1  1.82235000  1.85785000  -0.07687320  1
  Mo  Mo2  1  1.89953000  7.15671000  1.82174000  1
  Mo  Mo3  1  7.37185000  1.77929000  1.80631000  1
  Mo  Mo4  1  3.65660000  -0.00629993  3.61786000  1
  Mo  Mo5  1  5.43750000  1.91886000  3.67994000  1
  Mo  Mo6  1  5.45160000  0.05781960  1.77128000  1
  Mo  Mo7  1  3.65629000  1.79623000  1.85143000  1
  Mo  Mo8  1  7.27939000  3.63207000  0.05643820  1
  Mo  Mo9  1  1.79720000  5.41196000  0.02215210  1
  Mo  Mo10  1  1.78421000  3.69613000  1.85200000  1
  Mo  Mo11  1  7.20260000  5.53154000  1.88070000  1
  Mo  Mo12  1  3.62585000  3.57201000  3.61799000  1
  Mo  Mo13  1  5.49478000  5.48656000  -0.00007760  1
  Mo  Mo14  1  5.41821000  3.66724000  1.79707000  1
  Mo  Mo15  1  3.64420000  5.38096000  1.76050000  1
