# generated using pymatgen
data_Mo
_symmetry_space_group_name_H-M   'P 1'
_cell_length_a   7.28165592
_cell_length_b   7.28165592
_cell_length_c   3.64082789
_cell_angle_alpha   90.00000000
_cell_angle_beta   90.00000000
_cell_angle_gamma   90.00000000
_symmetry_Int_Tables_number   1
_chemical_formula_structural   Mo
_chemical_formula_sum   Mo16
_cell_volume   193.04584401
_cell_formula_units_Z   16
loop_
 _symmetry_equiv_pos_site_id
 _symmetry_equiv_pos_as_xyz
  1  'x, y, z'
loop_
 _atom_site_type_symbol
 _atom_site_label
 _atom_site_symmetry_multiplicity
 _atom_site_fract_x
 _atom_site_fract_y
 _atom_site_fract_z
 _atom_site_occupancy
  Mo  Mo0  1  0.02648920  -0.02326160  -0.04908680  1
  Mo  Mo1  1  1.89952000  1.72346000  -0.00383069  1
  Mo  Mo2  1  1.89007000  7.32183000  1.81006000  1
  Mo  Mo3  1  7.30017000  1.83123000  1.84801000  1
  Mo  Mo4  1  3.71073000  -0.03533010  3.64910000  1
  Mo  Mo5  1  5.53913000  1.86038000  3.69021000  1
  Mo  Mo6  1  5.40196000  0.05804370  1.77500000  1
  Mo  Mo7  1  3.62455000  1.88625000  1.81537000  1
  Mo  Mo8  1  7.22246000  3.67100000  0.02480460  1
  Mo  Mo9  1  1.77023000  5.50101000  -0.05687870  1
  Mo  Mo10  1  1.74899000  3.57703000  1.83506000  1
  Mo  Mo11  1  7.30673000  5.47159000  1.78021000  1
  Mo  Mo12  1  3.57508000  3.60089000  3.63796000  1
  Mo  Mo13  1  5.40520000  5.47862000  0.01137710  1
  Mo  Mo14  1  5.39767000  3.60670000  1.82986000  1
  Mo  Mo15  1  3.68668000  5.41288000  1.87396000  1
