# generated using pymatgen
data_Mo
_symmetry_space_group_name_H-M   'P 1'
_cell_length_a   7.27808089
_cell_length_b   7.27808089
_cell_length_c   3.63904047
_cell_angle_alpha   90.00000000
_cell_angle_beta   90.00000000
_cell_angle_gamma   90.00000000
_symmetry_Int_Tables_number   1
_chemical_formula_structural   Mo
_chemical_formula_sum   Mo16
_cell_volume   192.76165285
_cell_formula_units_Z   16
loop_
 _symmetry_equiv_pos_site_id
 _symmetry_equiv_pos_as_xyz
  1  'x, y, z'
loop_
 _atom_site_type_symbol
 _atom_site_label
 _atom_site_symmetry_multiplicity
 _atom_site_fract_x
 _atom_site_fract_y
 _atom_site_fract_z
 _atom_site_occupancy
  Mo  Mo0  1  0.00161461  7.26425000  -0.00291511  1
  Mo  Mo1  1  1.82648000  1.81677000  -0.00177995  1
  Mo  Mo2  1  1.80924000  7.28468000  1.82706000  1
  Mo  Mo3  1  7.26686000  1.82543000  1.80775000  1
  Mo  Mo4  1  3.64151000  7.27590000  3.63756000  1
  Mo  Mo5  1  5.44586000  1.81744000  -0.00622296  1
  Mo  Mo6  1  5.46562000  0.00729806  1.81684000  1
  Mo  Mo7  1  3.63726000  1.82341000  1.80885000  1
  Mo  Mo8  1  7.27367000  3.63200000  3.63523000  1
  Mo  Mo9  1  1.82261000  5.45741000  3.63582000  1
  Mo  Mo10  1  1.81768000  3.63260000  1.81575000  1
  Mo  Mo11  1  7.27802000  5.46281000  1.81929000  1
  Mo  Mo12  1  3.63587000  3.63669000  0.00709786  1
  Mo  Mo13  1  5.46175000  5.46328000  3.64388000  1
  Mo  Mo14  1  5.46573000  3.64318000  1.82857000  1
  Mo  Mo15  1  3.65231000  5.45895000  1.83924000  1
