# generated using pymatgen
data_Mo
_symmetry_space_group_name_H-M   'P 1'
_cell_length_a   7.28165592
_cell_length_b   7.28165592
_cell_length_c   3.64082789
_cell_angle_alpha   90.00000000
_cell_angle_beta   90.00000000
_cell_angle_gamma   90.00000000
_symmetry_Int_Tables_number   1
_chemical_formula_structural   Mo
_chemical_formula_sum   Mo16
_cell_volume   193.04584401
_cell_formula_units_Z   16
loop_
 _symmetry_equiv_pos_site_id
 _symmetry_equiv_pos_as_xyz
  1  'x, y, z'
loop_
 _atom_site_type_symbol
 _atom_site_label
 _atom_site_symmetry_multiplicity
 _atom_site_fract_x
 _atom_site_fract_y
 _atom_site_fract_z
 _atom_site_occupancy
  Mo  Mo0  1  -0.02750920  0.00519229  0.00740779  1
  Mo  Mo1  1  1.74410000  1.84322000  -0.00735638  1
  Mo  Mo2  1  1.86954000  7.28774000  1.82766000  1
  Mo  Mo3  1  7.24519000  1.74401000  1.87120000  1
  Mo  Mo4  1  3.72488000  0.04046540  3.61345000  1
  Mo  Mo5  1  5.37946000  1.85829000  3.60352000  1
  Mo  Mo6  1  5.49922000  -0.04143520  1.80294000  1
  Mo  Mo7  1  3.67796000  1.79307000  1.81921000  1
  Mo  Mo8  1  7.28971000  3.60257000  -0.00737878  1
  Mo  Mo9  1  1.90008000  5.47735000  0.02637740  1
  Mo  Mo10  1  1.75011000  3.62473000  1.77536000  1
  Mo  Mo11  1  7.32089000  5.53463000  1.83328000  1
  Mo  Mo12  1  3.57600000  3.62652000  3.65831000  1
  Mo  Mo13  1  5.46630000  5.40837000  -0.04269320  1
  Mo  Mo14  1  5.48689000  3.67433000  1.86072000  1
  Mo  Mo15  1  3.60284000  5.46328000  1.82916000  1
