# generated using pymatgen
data_Mo
_symmetry_space_group_name_H-M   'P 1'
_cell_length_a   7.28165592
_cell_length_b   7.28165592
_cell_length_c   3.64082789
_cell_angle_alpha   90.00000000
_cell_angle_beta   90.00000000
_cell_angle_gamma   90.00000000
_symmetry_Int_Tables_number   1
_chemical_formula_structural   Mo
_chemical_formula_sum   Mo16
_cell_volume   193.04584401
_cell_formula_units_Z   16
loop_
 _symmetry_equiv_pos_site_id
 _symmetry_equiv_pos_as_xyz
  1  'x, y, z'
loop_
 _atom_site_type_symbol
 _atom_site_label
 _atom_site_symmetry_multiplicity
 _atom_site_fract_x
 _atom_site_fract_y
 _atom_site_fract_z
 _atom_site_occupancy
  Mo  Mo0  1  -0.06645760  0.00357406  0.02259490  1
  Mo  Mo1  1  1.84394000  1.81478000  -0.00322496  1
  Mo  Mo2  1  1.81643000  7.31615000  1.82615000  1
  Mo  Mo3  1  7.23329000  1.80465000  1.74683000  1
  Mo  Mo4  1  3.60381000  0.04775370  3.66354000  1
  Mo  Mo5  1  5.44376000  1.80167000  3.69243000  1
  Mo  Mo6  1  5.37745000  -0.08522630  1.83467000  1
  Mo  Mo7  1  3.64238000  1.85671000  1.82772000  1
  Mo  Mo8  1  7.29379000  3.57688000  -0.01665280  1
  Mo  Mo9  1  1.87215000  5.47247000  -0.03189160  1
  Mo  Mo10  1  1.83425000  3.68899000  1.78358000  1
  Mo  Mo11  1  7.31441000  5.41630000  1.86962000  1
  Mo  Mo12  1  3.66068000  3.59883000  3.62759000  1
  Mo  Mo13  1  5.43865000  5.48751000  -0.02777750  1
  Mo  Mo14  1  5.47471000  3.66400000  1.81956000  1
  Mo  Mo15  1  3.72241000  5.47731000  1.83646000  1
