# generated using pymatgen
data_Mo
_symmetry_space_group_name_H-M   'P 1'
_cell_length_a   7.28165592
_cell_length_b   7.28165592
_cell_length_c   3.64082789
_cell_angle_alpha   90.00000000
_cell_angle_beta   90.00000000
_cell_angle_gamma   90.00000000
_symmetry_Int_Tables_number   1
_chemical_formula_structural   Mo
_chemical_formula_sum   Mo16
_cell_volume   193.04584401
_cell_formula_units_Z   16
loop_
 _symmetry_equiv_pos_site_id
 _symmetry_equiv_pos_as_xyz
  1  'x, y, z'
loop_
 _atom_site_type_symbol
 _atom_site_label
 _atom_site_symmetry_multiplicity
 _atom_site_fract_x
 _atom_site_fract_y
 _atom_site_fract_z
 _atom_site_occupancy
  Mo  Mo0  1  -0.00194523  -0.07450880  -0.00662370  1
  Mo  Mo1  1  1.79165000  1.84721000  -0.03944100  1
  Mo  Mo2  1  1.84033000  7.30531000  1.80016000  1
  Mo  Mo3  1  7.23072000  1.78578000  1.83366000  1
  Mo  Mo4  1  3.65435000  0.01798910  3.63042000  1
  Mo  Mo5  1  5.39892000  1.83267000  3.61988000  1
  Mo  Mo6  1  5.41846000  0.01633060  1.89027000  1
  Mo  Mo7  1  3.67800000  1.84476000  1.87458000  1
  Mo  Mo8  1  7.28922000  3.66095000  -0.07488200  1
  Mo  Mo9  1  1.85352000  5.47049000  -0.00554999  1
  Mo  Mo10  1  1.85736000  3.55373000  1.81185000  1
  Mo  Mo11  1  7.27978000  5.44144000  1.77817000  1
  Mo  Mo12  1  3.70449000  3.71440000  3.67418000  1
  Mo  Mo13  1  5.44705000  5.39847000  0.05191390  1
  Mo  Mo14  1  5.48488000  3.63837000  1.83911000  1
  Mo  Mo15  1  3.57886000  5.48895000  1.79346000  1
