# generated using pymatgen
data_Mo
_symmetry_space_group_name_H-M   'P 1'
_cell_length_a   7.28165592
_cell_length_b   7.28165592
_cell_length_c   3.64082789
_cell_angle_alpha   90.00000000
_cell_angle_beta   90.00000000
_cell_angle_gamma   90.00000000
_symmetry_Int_Tables_number   1
_chemical_formula_structural   Mo
_chemical_formula_sum   Mo16
_cell_volume   193.04584401
_cell_formula_units_Z   16
loop_
 _symmetry_equiv_pos_site_id
 _symmetry_equiv_pos_as_xyz
  1  'x, y, z'
loop_
 _atom_site_type_symbol
 _atom_site_label
 _atom_site_symmetry_multiplicity
 _atom_site_fract_x
 _atom_site_fract_y
 _atom_site_fract_z
 _atom_site_occupancy
  Mo  Mo0  1  0.03852360  -0.04865600  -0.07826260  1
  Mo  Mo1  1  1.79923000  1.86452000  -0.03286190  1
  Mo  Mo2  1  1.83717000  7.28847000  1.84212000  1
  Mo  Mo3  1  7.29300000  1.82240000  1.85705000  1
  Mo  Mo4  1  3.68806000  -0.02264290  3.66018000  1
  Mo  Mo5  1  5.46414000  1.85852000  3.61657000  1
  Mo  Mo6  1  5.50020000  0.00313028  1.82119000  1
  Mo  Mo7  1  3.70314000  1.83373000  1.85860000  1
  Mo  Mo8  1  7.28540000  3.67213000  0.01290970  1
  Mo  Mo9  1  1.80172000  5.40910000  0.03374220  1
  Mo  Mo10  1  1.81651000  3.50778000  1.81982000  1
  Mo  Mo11  1  7.26001000  5.46846000  1.77077000  1
  Mo  Mo12  1  3.62579000  3.69390000  3.63300000  1
  Mo  Mo13  1  5.43471000  5.44491000  0.00640962  1
  Mo  Mo14  1  5.44899000  3.69179000  1.87901000  1
  Mo  Mo15  1  3.50906000  5.45479000  1.77093000  1
