# generated using pymatgen
data_Mo
_symmetry_space_group_name_H-M   'P 1'
_cell_length_a   7.28165592
_cell_length_b   7.28165592
_cell_length_c   3.64082789
_cell_angle_alpha   90.00000000
_cell_angle_beta   90.00000000
_cell_angle_gamma   90.00000000
_symmetry_Int_Tables_number   1
_chemical_formula_structural   Mo
_chemical_formula_sum   Mo16
_cell_volume   193.04584401
_cell_formula_units_Z   16
loop_
 _symmetry_equiv_pos_site_id
 _symmetry_equiv_pos_as_xyz
  1  'x, y, z'
loop_
 _atom_site_type_symbol
 _atom_site_label
 _atom_site_symmetry_multiplicity
 _atom_site_fract_x
 _atom_site_fract_y
 _atom_site_fract_z
 _atom_site_occupancy
  Mo  Mo0  1  -0.02945600  0.01646990  -0.05399630  1
  Mo  Mo1  1  1.87765000  1.81518000  0.03376930  1
  Mo  Mo2  1  1.87423000  7.32031000  1.73788000  1
  Mo  Mo3  1  7.29996000  1.77015000  1.81917000  1
  Mo  Mo4  1  3.67757000  0.06757310  3.66913000  1
  Mo  Mo5  1  5.44191000  1.90858000  3.64233000  1
  Mo  Mo6  1  5.47167000  -0.02166940  1.85359000  1
  Mo  Mo7  1  3.72803000  1.78660000  1.87856000  1
  Mo  Mo8  1  7.25527000  3.60774000  0.00481151  1
  Mo  Mo9  1  1.84454000  5.46223000  -0.01624820  1
  Mo  Mo10  1  1.79279000  3.58450000  1.80035000  1
  Mo  Mo11  1  7.23888000  5.52310000  1.81111000  1
  Mo  Mo12  1  3.61316000  3.58697000  3.67576000  1
  Mo  Mo13  1  5.38694000  5.37615000  -0.01860710  1
  Mo  Mo14  1  5.47791000  3.68916000  1.82623000  1
  Mo  Mo15  1  3.55461000  5.44932000  1.80732000  1
