# generated using pymatgen
data_Mo
_symmetry_space_group_name_H-M   'P 1'
_cell_length_a   7.28165592
_cell_length_b   7.28165592
_cell_length_c   3.64082789
_cell_angle_alpha   90.00000000
_cell_angle_beta   90.00000000
_cell_angle_gamma   90.00000000
_symmetry_Int_Tables_number   1
_chemical_formula_structural   Mo
_chemical_formula_sum   Mo16
_cell_volume   193.04584401
_cell_formula_units_Z   16
loop_
 _symmetry_equiv_pos_site_id
 _symmetry_equiv_pos_as_xyz
  1  'x, y, z'
loop_
 _atom_site_type_symbol
 _atom_site_label
 _atom_site_symmetry_multiplicity
 _atom_site_fract_x
 _atom_site_fract_y
 _atom_site_fract_z
 _atom_site_occupancy
  Mo  Mo0  1  -0.00070927  -0.02117800  -0.02298040  1
  Mo  Mo1  1  1.83166000  1.78633000  0.02846130  1
  Mo  Mo2  1  1.77524000  7.30288000  1.83305000  1
  Mo  Mo3  1  7.22535000  1.83776000  1.84871000  1
  Mo  Mo4  1  3.65830000  -0.00219555  3.59482000  1
  Mo  Mo5  1  5.42697000  1.84529000  3.61079000  1
  Mo  Mo6  1  5.52643000  -0.00936348  1.80801000  1
  Mo  Mo7  1  3.52994000  1.76944000  1.75551000  1
  Mo  Mo8  1  7.23953000  3.61639000  -0.00496445  1
  Mo  Mo9  1  1.87229000  5.45615000  -0.00394011  1
  Mo  Mo10  1  1.78629000  3.64393000  1.82542000  1
  Mo  Mo11  1  7.36539000  5.44298000  1.80455000  1
  Mo  Mo12  1  3.67070000  3.62106000  3.65275000  1
  Mo  Mo13  1  5.45980000  5.46615000  0.01078780  1
  Mo  Mo14  1  5.40887000  3.65583000  1.85482000  1
  Mo  Mo15  1  3.72960000  5.53090000  1.87537000  1
