# generated using pymatgen
data_Mo
_symmetry_space_group_name_H-M   'P 1'
_cell_length_a   7.28165592
_cell_length_b   7.28165592
_cell_length_c   3.64082789
_cell_angle_alpha   90.00000000
_cell_angle_beta   90.00000000
_cell_angle_gamma   90.00000000
_symmetry_Int_Tables_number   1
_chemical_formula_structural   Mo
_chemical_formula_sum   Mo16
_cell_volume   193.04584401
_cell_formula_units_Z   16
loop_
 _symmetry_equiv_pos_site_id
 _symmetry_equiv_pos_as_xyz
  1  'x, y, z'
loop_
 _atom_site_type_symbol
 _atom_site_label
 _atom_site_symmetry_multiplicity
 _atom_site_fract_x
 _atom_site_fract_y
 _atom_site_fract_z
 _atom_site_occupancy
  Mo  Mo0  1  0.04191610  0.07608800  0.03802750  1
  Mo  Mo1  1  1.78507000  1.84507000  -0.03755190  1
  Mo  Mo2  1  1.82254000  7.20999000  1.85992000  1
  Mo  Mo3  1  7.29971000  1.93580000  1.81343000  1
  Mo  Mo4  1  3.59548000  -0.03208310  3.59605000  1
  Mo  Mo5  1  5.43540000  1.76916000  3.64233000  1
  Mo  Mo6  1  5.45546000  0.01515620  1.77392000  1
  Mo  Mo7  1  3.57240000  1.81749000  1.78218000  1
  Mo  Mo8  1  7.32991000  3.65681000  -0.01479370  1
  Mo  Mo9  1  1.81776000  5.43969000  0.00180934  1
  Mo  Mo10  1  1.83964000  3.66218000  1.87356000  1
  Mo  Mo11  1  7.25602000  5.41444000  1.86870000  1
  Mo  Mo12  1  3.69532000  3.61450000  3.60142000  1
  Mo  Mo13  1  5.48557000  5.47606000  0.02991290  1
  Mo  Mo14  1  5.43374000  3.62265000  1.79368000  1
  Mo  Mo15  1  3.63973000  5.41932000  1.84857000  1
