# generated using pymatgen
data_Mo
_symmetry_space_group_name_H-M   'P 1'
_cell_length_a   7.28165592
_cell_length_b   7.28165592
_cell_length_c   3.64082789
_cell_angle_alpha   90.00000000
_cell_angle_beta   90.00000000
_cell_angle_gamma   90.00000000
_symmetry_Int_Tables_number   1
_chemical_formula_structural   Mo
_chemical_formula_sum   Mo16
_cell_volume   193.04584401
_cell_formula_units_Z   16
loop_
 _symmetry_equiv_pos_site_id
 _symmetry_equiv_pos_as_xyz
  1  'x, y, z'
loop_
 _atom_site_type_symbol
 _atom_site_label
 _atom_site_symmetry_multiplicity
 _atom_site_fract_x
 _atom_site_fract_y
 _atom_site_fract_z
 _atom_site_occupancy
  Mo  Mo0  1  -0.00947013  0.05272580  0.01744050  1
  Mo  Mo1  1  1.79544000  1.80762000  -0.05755840  1
  Mo  Mo2  1  1.86976000  7.20352000  1.83438000  1
  Mo  Mo3  1  7.26650000  1.76665000  1.79690000  1
  Mo  Mo4  1  3.66839000  0.00513523  3.65041000  1
  Mo  Mo5  1  5.45643000  1.85881000  3.65250000  1
  Mo  Mo6  1  5.47767000  -0.00090292  1.80807000  1
  Mo  Mo7  1  3.68964000  1.72352000  1.80421000  1
  Mo  Mo8  1  7.29211000  3.62506000  0.05250580  1
  Mo  Mo9  1  1.83841000  5.47585000  0.02496460  1
  Mo  Mo10  1  1.73782000  3.61597000  1.85447000  1
  Mo  Mo11  1  7.26375000  5.55280000  1.86412000  1
  Mo  Mo12  1  3.63166000  3.61103000  3.62524000  1
  Mo  Mo13  1  5.46008000  5.48963000  -0.02489400  1
  Mo  Mo14  1  5.47439000  3.70567000  1.79926000  1
  Mo  Mo15  1  3.59308000  5.44925000  1.76916000  1
