# generated using pymatgen
data_Mo
_symmetry_space_group_name_H-M   'P 1'
_cell_length_a   7.28165592
_cell_length_b   7.28165592
_cell_length_c   3.64082789
_cell_angle_alpha   90.00000000
_cell_angle_beta   90.00000000
_cell_angle_gamma   90.00000000
_symmetry_Int_Tables_number   1
_chemical_formula_structural   Mo
_chemical_formula_sum   Mo16
_cell_volume   193.04584401
_cell_formula_units_Z   16
loop_
 _symmetry_equiv_pos_site_id
 _symmetry_equiv_pos_as_xyz
  1  'x, y, z'
loop_
 _atom_site_type_symbol
 _atom_site_label
 _atom_site_symmetry_multiplicity
 _atom_site_fract_x
 _atom_site_fract_y
 _atom_site_fract_z
 _atom_site_occupancy
  Mo  Mo0  1  0.01796080  -0.01958490  -0.03679560  1
  Mo  Mo1  1  1.87789000  1.84377000  0.05290570  1
  Mo  Mo2  1  1.76542000  7.29713000  1.77290000  1
  Mo  Mo3  1  7.28259000  1.81790000  1.82482000  1
  Mo  Mo4  1  3.61804000  0.02198060  3.64095000  1
  Mo  Mo5  1  5.45320000  1.81474000  3.66970000  1
  Mo  Mo6  1  5.45437000  -0.03289990  1.87858000  1
  Mo  Mo7  1  3.59646000  1.83309000  1.81457000  1
  Mo  Mo8  1  7.30222000  3.60849000  -0.03810870  1
  Mo  Mo9  1  1.78363000  5.45820000  -0.01480950  1
  Mo  Mo10  1  1.85180000  3.68108000  1.78655000  1
  Mo  Mo11  1  7.31035000  5.45233000  1.78690000  1
  Mo  Mo12  1  3.64166000  3.65928000  3.67382000  1
  Mo  Mo13  1  5.42121000  5.36596000  -0.03644100  1
  Mo  Mo14  1  5.46638000  3.61361000  1.82873000  1
  Mo  Mo15  1  3.66249000  5.52727000  1.86689000  1
