# generated using pymatgen
data_Mo
_symmetry_space_group_name_H-M   'P 1'
_cell_length_a   7.28165592
_cell_length_b   7.28165592
_cell_length_c   3.64082789
_cell_angle_alpha   90.00000000
_cell_angle_beta   90.00000000
_cell_angle_gamma   90.00000000
_symmetry_Int_Tables_number   1
_chemical_formula_structural   Mo
_chemical_formula_sum   Mo16
_cell_volume   193.04584401
_cell_formula_units_Z   16
loop_
 _symmetry_equiv_pos_site_id
 _symmetry_equiv_pos_as_xyz
  1  'x, y, z'
loop_
 _atom_site_type_symbol
 _atom_site_label
 _atom_site_symmetry_multiplicity
 _atom_site_fract_x
 _atom_site_fract_y
 _atom_site_fract_z
 _atom_site_occupancy
  Mo  Mo0  1  -0.02321930  0.04777310  0.06231310  1
  Mo  Mo1  1  1.78641000  1.84552000  -0.09561330  1
  Mo  Mo2  1  1.79811000  7.22563000  1.87135000  1
  Mo  Mo3  1  7.32715000  1.88853000  1.79656000  1
  Mo  Mo4  1  3.63060000  -0.01966800  3.60988000  1
  Mo  Mo5  1  5.39229000  1.82153000  3.63930000  1
  Mo  Mo6  1  5.46282000  0.03724100  1.78262000  1
  Mo  Mo7  1  3.61249000  1.81186000  1.80800000  1
  Mo  Mo8  1  7.34737000  3.65886000  -0.00148333  1
  Mo  Mo9  1  1.82826000  5.45744000  0.02591220  1
  Mo  Mo10  1  1.87230000  3.62911000  1.86726000  1
  Mo  Mo11  1  7.22935000  5.41913000  1.86056000  1
  Mo  Mo12  1  3.67446000  3.61262000  3.61027000  1
  Mo  Mo13  1  5.50952000  5.49859000  0.03204920  1
  Mo  Mo14  1  5.41180000  3.61170000  1.81932000  1
  Mo  Mo15  1  3.64596000  5.39648000  1.78286000  1
