# generated using pymatgen
data_Mo
_symmetry_space_group_name_H-M   'P 1'
_cell_length_a   7.28165592
_cell_length_b   7.28165592
_cell_length_c   3.64082789
_cell_angle_alpha   90.00000000
_cell_angle_beta   90.00000000
_cell_angle_gamma   90.00000000
_symmetry_Int_Tables_number   1
_chemical_formula_structural   Mo
_chemical_formula_sum   Mo16
_cell_volume   193.04584401
_cell_formula_units_Z   16
loop_
 _symmetry_equiv_pos_site_id
 _symmetry_equiv_pos_as_xyz
  1  'x, y, z'
loop_
 _atom_site_type_symbol
 _atom_site_label
 _atom_site_symmetry_multiplicity
 _atom_site_fract_x
 _atom_site_fract_y
 _atom_site_fract_z
 _atom_site_occupancy
  Mo  Mo0  1  0.06476710  0.05714950  -0.00055058  1
  Mo  Mo1  1  1.80075000  1.77647000  -0.00806196  1
  Mo  Mo2  1  1.85548000  7.19044000  1.85500000  1
  Mo  Mo3  1  7.32379000  1.85616000  1.81906000  1
  Mo  Mo4  1  3.67375000  -0.00622868  3.65691000  1
  Mo  Mo5  1  5.44419000  1.80913000  3.62974000  1
  Mo  Mo6  1  5.52889000  0.06573270  1.77285000  1
  Mo  Mo7  1  3.63630000  1.77354000  1.80444000  1
  Mo  Mo8  1  7.23344000  3.65339000  0.02191340  1
  Mo  Mo9  1  1.78888000  5.49339000  -0.01906710  1
  Mo  Mo10  1  1.78538000  3.63930000  1.91117000  1
  Mo  Mo11  1  7.17759000  5.42438000  1.76812000  1
  Mo  Mo12  1  3.67750000  3.63863000  3.61369000  1
  Mo  Mo13  1  5.49743000  5.50637000  0.04155020  1
  Mo  Mo14  1  5.37168000  3.61246000  1.79338000  1
  Mo  Mo15  1  3.64584000  5.45202000  1.81102000  1
