# generated using pymatgen
data_Mo
_symmetry_space_group_name_H-M   'P 1'
_cell_length_a   7.28165592
_cell_length_b   7.28165592
_cell_length_c   3.64082789
_cell_angle_alpha   90.00000000
_cell_angle_beta   90.00000000
_cell_angle_gamma   90.00000000
_symmetry_Int_Tables_number   1
_chemical_formula_structural   Mo
_chemical_formula_sum   Mo16
_cell_volume   193.04584401
_cell_formula_units_Z   16
loop_
 _symmetry_equiv_pos_site_id
 _symmetry_equiv_pos_as_xyz
  1  'x, y, z'
loop_
 _atom_site_type_symbol
 _atom_site_label
 _atom_site_symmetry_multiplicity
 _atom_site_fract_x
 _atom_site_fract_y
 _atom_site_fract_z
 _atom_site_occupancy
  Mo  Mo0  1  -0.02570400  0.00271499  0.01386450  1
  Mo  Mo1  1  1.78789000  1.85647000  -0.05049180  1
  Mo  Mo2  1  1.81208000  7.28580000  1.81763000  1
  Mo  Mo3  1  7.32415000  1.86863000  1.84595000  1
  Mo  Mo4  1  3.56044000  -0.00739072  3.66706000  1
  Mo  Mo5  1  5.42726000  1.82608000  3.62868000  1
  Mo  Mo6  1  5.41930000  -0.00992741  1.82752000  1
  Mo  Mo7  1  3.63224000  1.82899000  1.80149000  1
  Mo  Mo8  1  7.33120000  3.60667000  0.01239720  1
  Mo  Mo9  1  1.85623000  5.51038000  -0.05795940  1
  Mo  Mo10  1  1.87913000  3.66559000  1.85461000  1
  Mo  Mo11  1  7.26100000  5.35454000  1.77292000  1
  Mo  Mo12  1  3.68656000  3.67555000  3.61415000  1
  Mo  Mo13  1  5.49035000  5.43963000  0.07953420  1
  Mo  Mo14  1  5.46152000  3.58856000  1.80961000  1
  Mo  Mo15  1  3.60201000  5.45005000  1.83421000  1
