# generated using pymatgen
data_Mo
_symmetry_space_group_name_H-M   'P 1'
_cell_length_a   7.28165592
_cell_length_b   7.28165592
_cell_length_c   3.64082789
_cell_angle_alpha   90.00000000
_cell_angle_beta   90.00000000
_cell_angle_gamma   90.00000000
_symmetry_Int_Tables_number   1
_chemical_formula_structural   Mo
_chemical_formula_sum   Mo16
_cell_volume   193.04584401
_cell_formula_units_Z   16
loop_
 _symmetry_equiv_pos_site_id
 _symmetry_equiv_pos_as_xyz
  1  'x, y, z'
loop_
 _atom_site_type_symbol
 _atom_site_label
 _atom_site_symmetry_multiplicity
 _atom_site_fract_x
 _atom_site_fract_y
 _atom_site_fract_z
 _atom_site_occupancy
  Mo  Mo0  1  -0.00977326  0.02150110  -0.02691030  1
  Mo  Mo1  1  1.79396000  1.79760000  0.03208210  1
  Mo  Mo2  1  1.82329000  7.15672000  1.78654000  1
  Mo  Mo3  1  7.36987000  1.78689000  1.78716000  1
  Mo  Mo4  1  3.64559000  0.04753520  3.68159000  1
  Mo  Mo5  1  5.50378000  1.85792000  3.66456000  1
  Mo  Mo6  1  5.49640000  0.01325300  1.86505000  1
  Mo  Mo7  1  3.60656000  1.83103000  1.78915000  1
  Mo  Mo8  1  7.31497000  3.62397000  -0.01239260  1
  Mo  Mo9  1  1.82133000  5.40307000  -0.03024650  1
  Mo  Mo10  1  1.74646000  3.70253000  1.81947000  1
  Mo  Mo11  1  7.20382000  5.47620000  1.73687000  1
  Mo  Mo12  1  3.59590000  3.62680000  3.66322000  1
  Mo  Mo13  1  5.46571000  5.48923000  0.02003460  1
  Mo  Mo14  1  5.49709000  3.67091000  1.84787000  1
  Mo  Mo15  1  3.63070000  5.43719000  1.84711000  1
