# generated using pymatgen
data_Mo
_symmetry_space_group_name_H-M   'P 1'
_cell_length_a   7.28165592
_cell_length_b   7.28165592
_cell_length_c   3.64082789
_cell_angle_alpha   90.00000000
_cell_angle_beta   90.00000000
_cell_angle_gamma   90.00000000
_symmetry_Int_Tables_number   1
_chemical_formula_structural   Mo
_chemical_formula_sum   Mo16
_cell_volume   193.04584401
_cell_formula_units_Z   16
loop_
 _symmetry_equiv_pos_site_id
 _symmetry_equiv_pos_as_xyz
  1  'x, y, z'
loop_
 _atom_site_type_symbol
 _atom_site_label
 _atom_site_symmetry_multiplicity
 _atom_site_fract_x
 _atom_site_fract_y
 _atom_site_fract_z
 _atom_site_occupancy
  Mo  Mo0  1  -0.02127220  -0.05377810  0.00627372  1
  Mo  Mo1  1  1.79973000  1.87596000  -0.01433170  1
  Mo  Mo2  1  1.79370000  7.34064000  1.79178000  1
  Mo  Mo3  1  7.27347000  1.75565000  1.85633000  1
  Mo  Mo4  1  3.64186000  0.01820540  3.63170000  1
  Mo  Mo5  1  5.42407000  1.78675000  3.60927000  1
  Mo  Mo6  1  5.44005000  -0.01047780  1.91888000  1
  Mo  Mo7  1  3.67670000  1.77411000  1.83327000  1
  Mo  Mo8  1  7.26082000  3.60790000  -0.06039500  1
  Mo  Mo9  1  1.84724000  5.45004000  -0.01245010  1
  Mo  Mo10  1  1.84124000  3.59170000  1.81278000  1
  Mo  Mo11  1  7.27648000  5.44358000  1.74458000  1
  Mo  Mo12  1  3.67443000  3.71205000  3.68326000  1
  Mo  Mo13  1  5.45547000  5.47631000  0.01920910  1
  Mo  Mo14  1  5.47509000  3.62871000  1.85341000  1
  Mo  Mo15  1  3.64658000  5.54500000  1.79760000  1
