# generated using pymatgen
data_Mo
_symmetry_space_group_name_H-M   'P 1'
_cell_length_a   7.28165592
_cell_length_b   7.28165592
_cell_length_c   3.64082789
_cell_angle_alpha   90.00000000
_cell_angle_beta   90.00000000
_cell_angle_gamma   90.00000000
_symmetry_Int_Tables_number   1
_chemical_formula_structural   Mo
_chemical_formula_sum   Mo16
_cell_volume   193.04584401
_cell_formula_units_Z   16
loop_
 _symmetry_equiv_pos_site_id
 _symmetry_equiv_pos_as_xyz
  1  'x, y, z'
loop_
 _atom_site_type_symbol
 _atom_site_label
 _atom_site_symmetry_multiplicity
 _atom_site_fract_x
 _atom_site_fract_y
 _atom_site_fract_z
 _atom_site_occupancy
  Mo  Mo0  1  -0.04084930  -0.02247660  0.05241300  1
  Mo  Mo1  1  1.85975000  1.78865000  0.01069380  1
  Mo  Mo2  1  1.87051000  7.34263000  1.82372000  1
  Mo  Mo3  1  7.24406000  1.79265000  1.80341000  1
  Mo  Mo4  1  3.70027000  -0.03440320  3.60447000  1
  Mo  Mo5  1  5.50880000  1.78163000  3.64606000  1
  Mo  Mo6  1  5.38624000  0.07875390  1.77157000  1
  Mo  Mo7  1  3.59669000  1.87327000  1.82589000  1
  Mo  Mo8  1  7.24961000  3.66270000  0.00918797  1
  Mo  Mo9  1  1.84262000  5.50691000  0.00916705  1
  Mo  Mo10  1  1.81723000  3.65999000  1.84600000  1
  Mo  Mo11  1  7.31485000  5.46469000  1.88750000  1
  Mo  Mo12  1  3.58149000  3.63442000  3.64702000  1
  Mo  Mo13  1  5.42410000  5.45658000  0.00230051  1
  Mo  Mo14  1  5.42729000  3.54642000  1.74548000  1
  Mo  Mo15  1  3.72300000  5.40992000  1.78629000  1
