# generated using pymatgen
data_Mo
_symmetry_space_group_name_H-M   'P 1'
_cell_length_a   7.28165592
_cell_length_b   7.28165592
_cell_length_c   3.64082789
_cell_angle_alpha   90.00000000
_cell_angle_beta   90.00000000
_cell_angle_gamma   90.00000000
_symmetry_Int_Tables_number   1
_chemical_formula_structural   Mo
_chemical_formula_sum   Mo16
_cell_volume   193.04584401
_cell_formula_units_Z   16
loop_
 _symmetry_equiv_pos_site_id
 _symmetry_equiv_pos_as_xyz
  1  'x, y, z'
loop_
 _atom_site_type_symbol
 _atom_site_label
 _atom_site_symmetry_multiplicity
 _atom_site_fract_x
 _atom_site_fract_y
 _atom_site_fract_z
 _atom_site_occupancy
  Mo  Mo0  1  -0.02873170  -0.02633800  -0.00157650  1
  Mo  Mo1  1  1.81111000  1.81647000  0.02222610  1
  Mo  Mo2  1  1.76107000  7.28799000  1.80049000  1
  Mo  Mo3  1  7.24795000  1.78451000  1.79961000  1
  Mo  Mo4  1  3.62656000  0.00196759  3.63903000  1
  Mo  Mo5  1  5.44020000  1.88292000  3.60132000  1
  Mo  Mo6  1  5.46867000  -0.06658240  1.86011000  1
  Mo  Mo7  1  3.64084000  1.79325000  1.80418000  1
  Mo  Mo8  1  7.29133000  3.64218000  0.00864977  1
  Mo  Mo9  1  1.87609000  5.47034000  0.04593430  1
  Mo  Mo10  1  1.76689000  3.62682000  1.80958000  1
  Mo  Mo11  1  7.37486000  5.52639000  1.90322000  1
  Mo  Mo12  1  3.63639000  3.62546000  3.59913000  1
  Mo  Mo13  1  5.45682000  5.38772000  -0.00977751  1
  Mo  Mo14  1  5.48994000  3.70553000  1.78706000  1
  Mo  Mo15  1  3.64565000  5.48371000  1.80198000  1
