# generated using pymatgen
data_Mo
_symmetry_space_group_name_H-M   'P 1'
_cell_length_a   7.28165592
_cell_length_b   7.28165592
_cell_length_c   3.64082789
_cell_angle_alpha   90.00000000
_cell_angle_beta   90.00000000
_cell_angle_gamma   90.00000000
_symmetry_Int_Tables_number   1
_chemical_formula_structural   Mo
_chemical_formula_sum   Mo16
_cell_volume   193.04584401
_cell_formula_units_Z   16
loop_
 _symmetry_equiv_pos_site_id
 _symmetry_equiv_pos_as_xyz
  1  'x, y, z'
loop_
 _atom_site_type_symbol
 _atom_site_label
 _atom_site_symmetry_multiplicity
 _atom_site_fract_x
 _atom_site_fract_y
 _atom_site_fract_z
 _atom_site_occupancy
  Mo  Mo0  1  0.02520330  0.01502930  0.02889230  1
  Mo  Mo1  1  1.74259000  1.77379000  -0.05485750  1
  Mo  Mo2  1  1.84327000  7.28326000  1.82086000  1
  Mo  Mo3  1  7.26330000  1.84702000  1.81824000  1
  Mo  Mo4  1  3.64240000  0.02439870  3.63695000  1
  Mo  Mo5  1  5.40282000  1.82374000  3.61110000  1
  Mo  Mo6  1  5.48015000  0.02532390  1.78671000  1
  Mo  Mo7  1  3.66581000  1.79048000  1.80625000  1
  Mo  Mo8  1  7.25661000  3.65191000  0.03030600  1
  Mo  Mo9  1  1.86116000  5.50067000  0.03771890  1
  Mo  Mo10  1  1.91401000  3.58764000  1.84270000  1
  Mo  Mo11  1  7.23429000  5.42160000  1.85241000  1
  Mo  Mo12  1  3.60436000  3.63251000  3.62862000  1
  Mo  Mo13  1  5.52035000  5.45855000  0.01015280  1
  Mo  Mo14  1  5.40182000  3.63001000  1.80100000  1
  Mo  Mo15  1  3.64753000  5.47640000  1.81413000  1
