# generated using pymatgen
data_Mo
_symmetry_space_group_name_H-M   'P 1'
_cell_length_a   7.28165592
_cell_length_b   7.28165592
_cell_length_c   3.64082789
_cell_angle_alpha   90.00000000
_cell_angle_beta   90.00000000
_cell_angle_gamma   90.00000000
_symmetry_Int_Tables_number   1
_chemical_formula_structural   Mo
_chemical_formula_sum   Mo16
_cell_volume   193.04584401
_cell_formula_units_Z   16
loop_
 _symmetry_equiv_pos_site_id
 _symmetry_equiv_pos_as_xyz
  1  'x, y, z'
loop_
 _atom_site_type_symbol
 _atom_site_label
 _atom_site_symmetry_multiplicity
 _atom_site_fract_x
 _atom_site_fract_y
 _atom_site_fract_z
 _atom_site_occupancy
  Mo  Mo0  1  -0.01131890  -0.00698470  0.00769088  1
  Mo  Mo1  1  1.88121000  1.77002000  0.04226410  1
  Mo  Mo2  1  1.81783000  7.28016000  1.77908000  1
  Mo  Mo3  1  7.23021000  1.80322000  1.80045000  1
  Mo  Mo4  1  3.60275000  0.04423040  3.66381000  1
  Mo  Mo5  1  5.51270000  1.86514000  3.69997000  1
  Mo  Mo6  1  5.45322000  -0.05221770  1.80981000  1
  Mo  Mo7  1  3.70094000  1.88839000  1.79913000  1
  Mo  Mo8  1  7.24512000  3.59407000  0.00154812  1
  Mo  Mo9  1  1.80855000  5.42973000  -0.07094470  1
  Mo  Mo10  1  1.82018000  3.67478000  1.80187000  1
  Mo  Mo11  1  7.34333000  5.40241000  1.78199000  1
  Mo  Mo12  1  3.61690000  3.61593000  3.66621000  1
  Mo  Mo13  1  5.43147000  5.47970000  -0.00849473  1
  Mo  Mo14  1  5.42982000  3.71244000  1.80217000  1
  Mo  Mo15  1  3.62275000  5.44132000  1.89462000  1
