# generated using pymatgen
data_Mo
_symmetry_space_group_name_H-M   'P 1'
_cell_length_a   7.27808089
_cell_length_b   7.27808089
_cell_length_c   3.63904047
_cell_angle_alpha   90.00000000
_cell_angle_beta   90.00000000
_cell_angle_gamma   90.00000000
_symmetry_Int_Tables_number   1
_chemical_formula_structural   Mo
_chemical_formula_sum   Mo16
_cell_volume   192.76165285
_cell_formula_units_Z   16
loop_
 _symmetry_equiv_pos_site_id
 _symmetry_equiv_pos_as_xyz
  1  'x, y, z'
loop_
 _atom_site_type_symbol
 _atom_site_label
 _atom_site_symmetry_multiplicity
 _atom_site_fract_x
 _atom_site_fract_y
 _atom_site_fract_z
 _atom_site_occupancy
  Mo  Mo0  1  0.00956811  7.28707000  -0.00404130  1
  Mo  Mo1  1  1.81270000  1.81479000  -0.00526796  1
  Mo  Mo2  1  1.80945000  7.27328000  1.80911000  1
  Mo  Mo3  1  7.27186000  1.81549000  1.81307000  1
  Mo  Mo4  1  3.64702000  7.28763000  3.65006000  1
  Mo  Mo5  1  5.45172000  1.82022000  -0.00641553  1
  Mo  Mo6  1  5.45073000  -0.00599350  1.81924000  1
  Mo  Mo7  1  3.63557000  1.82635000  1.82306000  1
  Mo  Mo8  1  7.27387000  3.64029000  3.63125000  1
  Mo  Mo9  1  1.83063000  5.45705000  3.64779000  1
  Mo  Mo10  1  1.82236000  3.62071000  1.82366000  1
  Mo  Mo11  1  7.27069000  5.46138000  1.83014000  1
  Mo  Mo12  1  3.63155000  3.63552000  -0.00969981  1
  Mo  Mo13  1  5.46092000  5.46690000  3.64530000  1
  Mo  Mo14  1  5.47563000  3.63805000  1.82396000  1
  Mo  Mo15  1  3.64784000  5.46336000  1.82078000  1
