# generated using pymatgen
data_Mo
_symmetry_space_group_name_H-M   'P 1'
_cell_length_a   7.28165592
_cell_length_b   7.28165592
_cell_length_c   3.64082789
_cell_angle_alpha   90.00000000
_cell_angle_beta   90.00000000
_cell_angle_gamma   90.00000000
_symmetry_Int_Tables_number   1
_chemical_formula_structural   Mo
_chemical_formula_sum   Mo16
_cell_volume   193.04584401
_cell_formula_units_Z   16
loop_
 _symmetry_equiv_pos_site_id
 _symmetry_equiv_pos_as_xyz
  1  'x, y, z'
loop_
 _atom_site_type_symbol
 _atom_site_label
 _atom_site_symmetry_multiplicity
 _atom_site_fract_x
 _atom_site_fract_y
 _atom_site_fract_z
 _atom_site_occupancy
  Mo  Mo0  1  -0.05969050  -0.02470570  -0.06588840  1
  Mo  Mo1  1  1.89379000  1.81542000  0.04657000  1
  Mo  Mo2  1  1.75272000  7.28600000  1.77455000  1
  Mo  Mo3  1  7.26400000  1.80382000  1.78198000  1
  Mo  Mo4  1  3.63974000  0.02072340  3.64428000  1
  Mo  Mo5  1  5.52112000  1.85670000  3.69351000  1
  Mo  Mo6  1  5.50301000  -0.02464880  1.85930000  1
  Mo  Mo7  1  3.62801000  1.79258000  1.88163000  1
  Mo  Mo8  1  7.27855000  3.63208000  -0.01237070  1
  Mo  Mo9  1  1.83384000  5.44964000  -0.00818750  1
  Mo  Mo10  1  1.77994000  3.65138000  1.81349000  1
  Mo  Mo11  1  7.34542000  5.48666000  1.82768000  1
  Mo  Mo12  1  3.61938000  3.63434000  3.65083000  1
  Mo  Mo13  1  5.42682000  5.38893000  -0.04449980  1
  Mo  Mo14  1  5.45167000  3.67175000  1.83678000  1
  Mo  Mo15  1  3.62732000  5.50169000  1.79153000  1
