# generated using pymatgen
data_Mo
_symmetry_space_group_name_H-M   'P 1'
_cell_length_a   7.28165592
_cell_length_b   7.28165592
_cell_length_c   3.64082789
_cell_angle_alpha   90.00000000
_cell_angle_beta   90.00000000
_cell_angle_gamma   90.00000000
_symmetry_Int_Tables_number   1
_chemical_formula_structural   Mo
_chemical_formula_sum   Mo16
_cell_volume   193.04584401
_cell_formula_units_Z   16
loop_
 _symmetry_equiv_pos_site_id
 _symmetry_equiv_pos_as_xyz
  1  'x, y, z'
loop_
 _atom_site_type_symbol
 _atom_site_label
 _atom_site_symmetry_multiplicity
 _atom_site_fract_x
 _atom_site_fract_y
 _atom_site_fract_z
 _atom_site_occupancy
  Mo  Mo0  1  -0.01078630  -0.04737630  0.00498752  1
  Mo  Mo1  1  1.81122000  1.81202000  -0.05247110  1
  Mo  Mo2  1  1.82989000  7.32687000  1.84216000  1
  Mo  Mo3  1  7.32184000  1.78804000  1.79891000  1
  Mo  Mo4  1  3.64709000  0.02075530  3.67553000  1
  Mo  Mo5  1  5.44794000  1.78932000  3.68602000  1
  Mo  Mo6  1  5.50567000  -0.02792260  1.77335000  1
  Mo  Mo7  1  3.67535000  1.83311000  1.92392000  1
  Mo  Mo8  1  7.27365000  3.64133000  -0.03641020  1
  Mo  Mo9  1  1.81559000  5.51592000  -0.00739007  1
  Mo  Mo10  1  1.83397000  3.64816000  1.82144000  1
  Mo  Mo11  1  7.25245000  5.40784000  1.76538000  1
  Mo  Mo12  1  3.59734000  3.66088000  3.69139000  1
  Mo  Mo13  1  5.50912000  5.49319000  -0.02044790  1
  Mo  Mo14  1  5.40188000  3.63152000  1.82233000  1
  Mo  Mo15  1  3.59346000  5.44870000  1.78248000  1
