# generated using pymatgen
data_Mo
_symmetry_space_group_name_H-M   'P 1'
_cell_length_a   7.28165592
_cell_length_b   7.28165592
_cell_length_c   3.64082789
_cell_angle_alpha   90.00000000
_cell_angle_beta   90.00000000
_cell_angle_gamma   90.00000000
_symmetry_Int_Tables_number   1
_chemical_formula_structural   Mo
_chemical_formula_sum   Mo16
_cell_volume   193.04584401
_cell_formula_units_Z   16
loop_
 _symmetry_equiv_pos_site_id
 _symmetry_equiv_pos_as_xyz
  1  'x, y, z'
loop_
 _atom_site_type_symbol
 _atom_site_label
 _atom_site_symmetry_multiplicity
 _atom_site_fract_x
 _atom_site_fract_y
 _atom_site_fract_z
 _atom_site_occupancy
  Mo  Mo0  1  -0.04052320  -0.03660240  0.01396310  1
  Mo  Mo1  1  1.70785000  1.84304000  0.00901016  1
  Mo  Mo2  1  1.81804000  7.27439000  1.79156000  1
  Mo  Mo3  1  7.27559000  1.74950000  1.84802000  1
  Mo  Mo4  1  3.64750000  0.03093490  3.65015000  1
  Mo  Mo5  1  5.36048000  1.87653000  3.55418000  1
  Mo  Mo6  1  5.45188000  -0.09620130  1.86275000  1
  Mo  Mo7  1  3.65081000  1.79758000  1.80765000  1
  Mo  Mo8  1  7.35111000  3.63530000  0.02886280  1
  Mo  Mo9  1  1.86055000  5.50984000  0.03241930  1
  Mo  Mo10  1  1.77645000  3.64320000  1.82721000  1
  Mo  Mo11  1  7.30949000  5.52973000  1.87453000  1
  Mo  Mo12  1  3.65205000  3.64415000  3.60306000  1
  Mo  Mo13  1  5.50811000  5.37843000  -0.00809454  1
  Mo  Mo14  1  5.56706000  3.69405000  1.77720000  1
  Mo  Mo15  1  3.60921000  5.46846000  1.79871000  1
