# generated using pymatgen
data_Mo
_symmetry_space_group_name_H-M   'P 1'
_cell_length_a   7.28165592
_cell_length_b   7.28165592
_cell_length_c   3.64082789
_cell_angle_alpha   90.00000000
_cell_angle_beta   90.00000000
_cell_angle_gamma   90.00000000
_symmetry_Int_Tables_number   1
_chemical_formula_structural   Mo
_chemical_formula_sum   Mo16
_cell_volume   193.04584401
_cell_formula_units_Z   16
loop_
 _symmetry_equiv_pos_site_id
 _symmetry_equiv_pos_as_xyz
  1  'x, y, z'
loop_
 _atom_site_type_symbol
 _atom_site_label
 _atom_site_symmetry_multiplicity
 _atom_site_fract_x
 _atom_site_fract_y
 _atom_site_fract_z
 _atom_site_occupancy
  Mo  Mo0  1  0.02252500  0.05101070  0.03088390  1
  Mo  Mo1  1  1.80624000  1.78009000  0.01736680  1
  Mo  Mo2  1  1.78636000  7.31101000  1.83687000  1
  Mo  Mo3  1  7.19866000  1.86747000  1.83611000  1
  Mo  Mo4  1  3.57957000  -0.02325090  3.60418000  1
  Mo  Mo5  1  5.49534000  1.79531000  3.62648000  1
  Mo  Mo6  1  5.47044000  -0.07906110  1.78213000  1
  Mo  Mo7  1  3.65871000  1.80553000  1.76123000  1
  Mo  Mo8  1  7.27352000  3.64610000  0.00581910  1
  Mo  Mo9  1  1.79545000  5.48162000  -0.03354380  1
  Mo  Mo10  1  1.79878000  3.66298000  1.84427000  1
  Mo  Mo11  1  7.39809000  5.47007000  1.88218000  1
  Mo  Mo12  1  3.65024000  3.55722000  3.61178000  1
  Mo  Mo13  1  5.48690000  5.49453000  -0.02224200  1
  Mo  Mo14  1  5.46595000  3.68850000  1.77865000  1
  Mo  Mo15  1  3.61889000  5.43322000  1.90899000  1
