# generated using pymatgen
data_Mo
_symmetry_space_group_name_H-M   'P 1'
_cell_length_a   7.28165592
_cell_length_b   7.28165592
_cell_length_c   3.64082789
_cell_angle_alpha   90.00000000
_cell_angle_beta   90.00000000
_cell_angle_gamma   90.00000000
_symmetry_Int_Tables_number   1
_chemical_formula_structural   Mo
_chemical_formula_sum   Mo16
_cell_volume   193.04584401
_cell_formula_units_Z   16
loop_
 _symmetry_equiv_pos_site_id
 _symmetry_equiv_pos_as_xyz
  1  'x, y, z'
loop_
 _atom_site_type_symbol
 _atom_site_label
 _atom_site_symmetry_multiplicity
 _atom_site_fract_x
 _atom_site_fract_y
 _atom_site_fract_z
 _atom_site_occupancy
  Mo  Mo0  1  0.00742905  0.01340600  0.01531340  1
  Mo  Mo1  1  1.79537000  1.82141000  -0.02919600  1
  Mo  Mo2  1  1.83793000  7.20104000  1.85513000  1
  Mo  Mo3  1  7.31244000  1.81109000  1.79467000  1
  Mo  Mo4  1  3.66306000  0.02552730  3.65061000  1
  Mo  Mo5  1  5.47819000  1.71623000  3.71215000  1
  Mo  Mo6  1  5.52849000  0.02055410  1.77842000  1
  Mo  Mo7  1  3.60343000  1.81697000  1.86566000  1
  Mo  Mo8  1  7.28126000  3.60812000  -0.03959980  1
  Mo  Mo9  1  1.80096000  5.49276000  -0.02967760  1
  Mo  Mo10  1  1.81207000  3.67351000  1.86500000  1
  Mo  Mo11  1  7.15603000  5.39576000  1.75128000  1
  Mo  Mo12  1  3.66578000  3.70266000  3.65983000  1
  Mo  Mo13  1  5.50465000  5.52759000  0.01894620  1
  Mo  Mo14  1  5.42204000  3.60396000  1.81638000  1
  Mo  Mo15  1  3.63653000  5.51175000  1.78626000  1
