# generated using pymatgen
data_Mo
_symmetry_space_group_name_H-M   'P 1'
_cell_length_a   7.28165592
_cell_length_b   7.28165592
_cell_length_c   3.64082789
_cell_angle_alpha   90.00000000
_cell_angle_beta   90.00000000
_cell_angle_gamma   90.00000000
_symmetry_Int_Tables_number   1
_chemical_formula_structural   Mo
_chemical_formula_sum   Mo16
_cell_volume   193.04584401
_cell_formula_units_Z   16
loop_
 _symmetry_equiv_pos_site_id
 _symmetry_equiv_pos_as_xyz
  1  'x, y, z'
loop_
 _atom_site_type_symbol
 _atom_site_label
 _atom_site_symmetry_multiplicity
 _atom_site_fract_x
 _atom_site_fract_y
 _atom_site_fract_z
 _atom_site_occupancy
  Mo  Mo0  1  0.03763150  -0.05667690  -0.06131780  1
  Mo  Mo1  1  1.80003000  1.79985000  -0.03831440  1
  Mo  Mo2  1  1.85686000  7.24924000  1.81777000  1
  Mo  Mo3  1  7.36896000  1.82630000  1.86579000  1
  Mo  Mo4  1  3.68681000  -0.04668280  3.66420000  1
  Mo  Mo5  1  5.52870000  1.83896000  3.65271000  1
  Mo  Mo6  1  5.46879000  0.09507260  1.78015000  1
  Mo  Mo7  1  3.58830000  1.82845000  1.86001000  1
  Mo  Mo8  1  7.27604000  3.69267000  0.01579190  1
  Mo  Mo9  1  1.75462000  5.43469000  -0.00363158  1
  Mo  Mo10  1  1.75082000  3.58859000  1.79284000  1
  Mo  Mo11  1  7.23811000  5.48226000  1.79020000  1
  Mo  Mo12  1  3.57664000  3.64907000  3.64330000  1
  Mo  Mo13  1  5.43576000  5.49182000  0.00342092  1
  Mo  Mo14  1  5.48013000  3.61966000  1.83768000  1
  Mo  Mo15  1  3.65745000  5.44907000  1.85059000  1
