# generated using pymatgen
data_Mo
_symmetry_space_group_name_H-M   'P 1'
_cell_length_a   7.28165592
_cell_length_b   7.28165592
_cell_length_c   3.64082789
_cell_angle_alpha   90.00000000
_cell_angle_beta   90.00000000
_cell_angle_gamma   90.00000000
_symmetry_Int_Tables_number   1
_chemical_formula_structural   Mo
_chemical_formula_sum   Mo16
_cell_volume   193.04584401
_cell_formula_units_Z   16
loop_
 _symmetry_equiv_pos_site_id
 _symmetry_equiv_pos_as_xyz
  1  'x, y, z'
loop_
 _atom_site_type_symbol
 _atom_site_label
 _atom_site_symmetry_multiplicity
 _atom_site_fract_x
 _atom_site_fract_y
 _atom_site_fract_z
 _atom_site_occupancy
  Mo  Mo0  1  0.02517630  -0.04082850  0.04049970  1
  Mo  Mo1  1  1.68715000  1.73291000  -0.05346740  1
  Mo  Mo2  1  1.86003000  7.31279000  1.83385000  1
  Mo  Mo3  1  7.20297000  1.82267000  1.79264000  1
  Mo  Mo4  1  3.65591000  -0.01236000  3.63602000  1
  Mo  Mo5  1  5.44309000  1.81086000  3.63986000  1
  Mo  Mo6  1  5.46939000  -0.05600310  1.79312000  1
  Mo  Mo7  1  3.59424000  1.83367000  1.82103000  1
  Mo  Mo8  1  7.30692000  3.70306000  0.02989970  1
  Mo  Mo9  1  1.83538000  5.53504000  0.02679690  1
  Mo  Mo10  1  1.83858000  3.61244000  1.85990000  1
  Mo  Mo11  1  7.31871000  5.41177000  1.85263000  1
  Mo  Mo12  1  3.60151000  3.66265000  3.62804000  1
  Mo  Mo13  1  5.55221000  5.47390000  0.01481060  1
  Mo  Mo14  1  5.47543000  3.69127000  1.78254000  1
  Mo  Mo15  1  3.63896000  5.44850000  1.77300000  1
