# generated using pymatgen
data_Mo
_symmetry_space_group_name_H-M   'P 1'
_cell_length_a   7.28165592
_cell_length_b   7.28165592
_cell_length_c   3.64082789
_cell_angle_alpha   90.00000000
_cell_angle_beta   90.00000000
_cell_angle_gamma   90.00000000
_symmetry_Int_Tables_number   1
_chemical_formula_structural   Mo
_chemical_formula_sum   Mo16
_cell_volume   193.04584401
_cell_formula_units_Z   16
loop_
 _symmetry_equiv_pos_site_id
 _symmetry_equiv_pos_as_xyz
  1  'x, y, z'
loop_
 _atom_site_type_symbol
 _atom_site_label
 _atom_site_symmetry_multiplicity
 _atom_site_fract_x
 _atom_site_fract_y
 _atom_site_fract_z
 _atom_site_occupancy
  Mo  Mo0  1  -0.05441910  0.01889720  0.02727380  1
  Mo  Mo1  1  1.84504000  1.85135000  0.01435880  1
  Mo  Mo2  1  1.76937000  7.28777000  1.83680000  1
  Mo  Mo3  1  7.17738000  1.80977000  1.80472000  1
  Mo  Mo4  1  3.62922000  0.04746680  3.60824000  1
  Mo  Mo5  1  5.43648000  1.84074000  3.62314000  1
  Mo  Mo6  1  5.46144000  -0.06879050  1.82970000  1
  Mo  Mo7  1  3.63992000  1.82197000  1.75830000  1
  Mo  Mo8  1  7.36096000  3.65143000  0.02024230  1
  Mo  Mo9  1  1.82304000  5.43101000  -0.01491450  1
  Mo  Mo10  1  1.86407000  3.58412000  1.79296000  1
  Mo  Mo11  1  7.32659000  5.48489000  1.86119000  1
  Mo  Mo12  1  3.67192000  3.62563000  3.61784000  1
  Mo  Mo13  1  5.45748000  5.40160000  0.03331580  1
  Mo  Mo14  1  5.50606000  3.70373000  1.85495000  1
  Mo  Mo15  1  3.59111000  5.45077000  1.80305000  1
