# generated using pymatgen
data_Mo
_symmetry_space_group_name_H-M   'P 1'
_cell_length_a   7.28165592
_cell_length_b   7.28165592
_cell_length_c   3.64082789
_cell_angle_alpha   90.00000000
_cell_angle_beta   90.00000000
_cell_angle_gamma   90.00000000
_symmetry_Int_Tables_number   1
_chemical_formula_structural   Mo
_chemical_formula_sum   Mo16
_cell_volume   193.04584401
_cell_formula_units_Z   16
loop_
 _symmetry_equiv_pos_site_id
 _symmetry_equiv_pos_as_xyz
  1  'x, y, z'
loop_
 _atom_site_type_symbol
 _atom_site_label
 _atom_site_symmetry_multiplicity
 _atom_site_fract_x
 _atom_site_fract_y
 _atom_site_fract_z
 _atom_site_occupancy
  Mo  Mo0  1  0.02052070  0.00585605  0.01359190  1
  Mo  Mo1  1  1.85997000  1.78677000  0.02062620  1
  Mo  Mo2  1  1.85049000  7.26369000  1.80322000  1
  Mo  Mo3  1  7.23222000  1.82304000  1.80943000  1
  Mo  Mo4  1  3.61979000  0.04524890  3.64976000  1
  Mo  Mo5  1  5.48036000  1.76094000  3.72392000  1
  Mo  Mo6  1  5.46579000  -0.01425930  1.77529000  1
  Mo  Mo7  1  3.66981000  1.85497000  1.82608000  1
  Mo  Mo8  1  7.24161000  3.58081000  -0.02522760  1
  Mo  Mo9  1  1.80089000  5.47313000  -0.05626390  1
  Mo  Mo10  1  1.83025000  3.65757000  1.80947000  1
  Mo  Mo11  1  7.26287000  5.38898000  1.78532000  1
  Mo  Mo12  1  3.68845000  3.64568000  3.67302000  1
  Mo  Mo13  1  5.43918000  5.49873000  0.00835691  1
  Mo  Mo14  1  5.42226000  3.65146000  1.78440000  1
  Mo  Mo15  1  3.62120000  5.51974000  1.87018000  1
