# generated using pymatgen
data_Mo
_symmetry_space_group_name_H-M   'P 1'
_cell_length_a   7.28165592
_cell_length_b   7.28165592
_cell_length_c   3.64082789
_cell_angle_alpha   90.00000000
_cell_angle_beta   90.00000000
_cell_angle_gamma   90.00000000
_symmetry_Int_Tables_number   1
_chemical_formula_structural   Mo
_chemical_formula_sum   Mo16
_cell_volume   193.04584401
_cell_formula_units_Z   16
loop_
 _symmetry_equiv_pos_site_id
 _symmetry_equiv_pos_as_xyz
  1  'x, y, z'
loop_
 _atom_site_type_symbol
 _atom_site_label
 _atom_site_symmetry_multiplicity
 _atom_site_fract_x
 _atom_site_fract_y
 _atom_site_fract_z
 _atom_site_occupancy
  Mo  Mo0  1  -0.06303090  -0.06954140  0.00870472  1
  Mo  Mo1  1  1.82537000  1.81039000  -0.02154340  1
  Mo  Mo2  1  1.81714000  7.32570000  1.85018000  1
  Mo  Mo3  1  7.28104000  1.79008000  1.86537000  1
  Mo  Mo4  1  3.61956000  -0.04255640  3.66529000  1
  Mo  Mo5  1  5.48332000  1.79746000  3.63740000  1
  Mo  Mo6  1  5.34883000  0.04172870  1.77369000  1
  Mo  Mo7  1  3.54301000  1.86810000  1.78676000  1
  Mo  Mo8  1  7.29485000  3.67882000  0.02997010  1
  Mo  Mo9  1  1.81920000  5.51612000  0.00253858  1
  Mo  Mo10  1  1.84685000  3.68455000  1.79020000  1
  Mo  Mo11  1  7.27705000  5.44149000  1.82988000  1
  Mo  Mo12  1  3.66022000  3.66514000  3.59751000  1
  Mo  Mo13  1  5.46535000  5.42983000  0.01314620  1
  Mo  Mo14  1  5.52529000  3.57266000  1.77698000  1
  Mo  Mo15  1  3.76160000  5.43239000  1.86509000  1
