# generated using pymatgen
data_Mo
_symmetry_space_group_name_H-M   'P 1'
_cell_length_a   7.28165592
_cell_length_b   7.28165592
_cell_length_c   3.64082789
_cell_angle_alpha   90.00000000
_cell_angle_beta   90.00000000
_cell_angle_gamma   90.00000000
_symmetry_Int_Tables_number   1
_chemical_formula_structural   Mo
_chemical_formula_sum   Mo16
_cell_volume   193.04584401
_cell_formula_units_Z   16
loop_
 _symmetry_equiv_pos_site_id
 _symmetry_equiv_pos_as_xyz
  1  'x, y, z'
loop_
 _atom_site_type_symbol
 _atom_site_label
 _atom_site_symmetry_multiplicity
 _atom_site_fract_x
 _atom_site_fract_y
 _atom_site_fract_z
 _atom_site_occupancy
  Mo  Mo0  1  0.04404880  -0.01534220  -0.05405080  1
  Mo  Mo1  1  1.83937000  1.79339000  0.06201890  1
  Mo  Mo2  1  1.84678000  7.30501000  1.81480000  1
  Mo  Mo3  1  7.26635000  1.84284000  1.77190000  1
  Mo  Mo4  1  3.65177000  -0.02200620  3.67770000  1
  Mo  Mo5  1  5.47111000  1.78887000  3.66210000  1
  Mo  Mo6  1  5.40805000  0.02831190  1.83448000  1
  Mo  Mo7  1  3.55070000  1.95075000  1.88737000  1
  Mo  Mo8  1  7.27968000  3.64650000  -0.06689490  1
  Mo  Mo9  1  1.82301000  5.47051000  0.00467793  1
  Mo  Mo10  1  1.79487000  3.67550000  1.77154000  1
  Mo  Mo11  1  7.28101000  5.42111000  1.78008000  1
  Mo  Mo12  1  3.60006000  3.69820000  3.67840000  1
  Mo  Mo13  1  5.42402000  5.39867000  -0.03150170  1
  Mo  Mo14  1  5.51758000  3.51279000  1.85016000  1
  Mo  Mo15  1  3.70724000  5.44722000  1.82840000  1
