# generated using pymatgen
data_Mo
_symmetry_space_group_name_H-M   'P 1'
_cell_length_a   7.28165592
_cell_length_b   7.28165592
_cell_length_c   3.64082789
_cell_angle_alpha   90.00000000
_cell_angle_beta   90.00000000
_cell_angle_gamma   90.00000000
_symmetry_Int_Tables_number   1
_chemical_formula_structural   Mo
_chemical_formula_sum   Mo16
_cell_volume   193.04584401
_cell_formula_units_Z   16
loop_
 _symmetry_equiv_pos_site_id
 _symmetry_equiv_pos_as_xyz
  1  'x, y, z'
loop_
 _atom_site_type_symbol
 _atom_site_label
 _atom_site_symmetry_multiplicity
 _atom_site_fract_x
 _atom_site_fract_y
 _atom_site_fract_z
 _atom_site_occupancy
  Mo  Mo0  1  -0.00484390  0.01963700  0.02894420  1
  Mo  Mo1  1  1.86820000  1.83580000  -0.05066360  1
  Mo  Mo2  1  1.77162000  7.25563000  1.82245000  1
  Mo  Mo3  1  7.33481000  1.83424000  1.77920000  1
  Mo  Mo4  1  3.65827000  0.00019799  3.64878000  1
  Mo  Mo5  1  5.45464000  1.80370000  3.61904000  1
  Mo  Mo6  1  5.49503000  0.02978210  1.81856000  1
  Mo  Mo7  1  3.61892000  1.79968000  1.82097000  1
  Mo  Mo8  1  7.27828000  3.62363000  0.03942530  1
  Mo  Mo9  1  1.78228000  5.39651000  0.04198250  1
  Mo  Mo10  1  1.82266000  3.66179000  1.83302000  1
  Mo  Mo11  1  7.26622000  5.43633000  1.89631000  1
  Mo  Mo12  1  3.70893000  3.62021000  3.62191000  1
  Mo  Mo13  1  5.35796000  5.52676000  0.00283268  1
  Mo  Mo14  1  5.48135000  3.61969000  1.77171000  1
  Mo  Mo15  1  3.61133000  5.47876000  1.77671000  1
