# generated using pymatgen
data_Mo
_symmetry_space_group_name_H-M   'P 1'
_cell_length_a   7.28165592
_cell_length_b   7.28165592
_cell_length_c   3.64082789
_cell_angle_alpha   90.00000000
_cell_angle_beta   90.00000000
_cell_angle_gamma   90.00000000
_symmetry_Int_Tables_number   1
_chemical_formula_structural   Mo
_chemical_formula_sum   Mo16
_cell_volume   193.04584401
_cell_formula_units_Z   16
loop_
 _symmetry_equiv_pos_site_id
 _symmetry_equiv_pos_as_xyz
  1  'x, y, z'
loop_
 _atom_site_type_symbol
 _atom_site_label
 _atom_site_symmetry_multiplicity
 _atom_site_fract_x
 _atom_site_fract_y
 _atom_site_fract_z
 _atom_site_occupancy
  Mo  Mo0  1  -0.02346540  -0.04631550  -0.01162200  1
  Mo  Mo1  1  1.85156000  1.77510000  0.03565570  1
  Mo  Mo2  1  1.77788000  7.32688000  1.78574000  1
  Mo  Mo3  1  7.25459000  1.79818000  1.84390000  1
  Mo  Mo4  1  3.63840000  -0.01039660  3.62356000  1
  Mo  Mo5  1  5.45264000  1.75982000  3.64531000  1
  Mo  Mo6  1  5.39637000  0.00618642  1.86531000  1
  Mo  Mo7  1  3.59177000  1.93408000  1.77617000  1
  Mo  Mo8  1  7.32618000  3.66812000  -0.00625703  1
  Mo  Mo9  1  1.77759000  5.48808000  0.02158790  1
  Mo  Mo10  1  1.84537000  3.64625000  1.79508000  1
  Mo  Mo11  1  7.30557000  5.48463000  1.82579000  1
  Mo  Mo12  1  3.63271000  3.64800000  3.59991000  1
  Mo  Mo13  1  5.45653000  5.46018000  0.00590774  1
  Mo  Mo14  1  5.53165000  3.54384000  1.82410000  1
  Mo  Mo15  1  3.69030000  5.45971000  1.84103000  1
