# generated using pymatgen
data_Mo
_symmetry_space_group_name_H-M   'P 1'
_cell_length_a   7.28165592
_cell_length_b   7.28165592
_cell_length_c   3.64082789
_cell_angle_alpha   90.00000000
_cell_angle_beta   90.00000000
_cell_angle_gamma   90.00000000
_symmetry_Int_Tables_number   1
_chemical_formula_structural   Mo
_chemical_formula_sum   Mo16
_cell_volume   193.04584401
_cell_formula_units_Z   16
loop_
 _symmetry_equiv_pos_site_id
 _symmetry_equiv_pos_as_xyz
  1  'x, y, z'
loop_
 _atom_site_type_symbol
 _atom_site_label
 _atom_site_symmetry_multiplicity
 _atom_site_fract_x
 _atom_site_fract_y
 _atom_site_fract_z
 _atom_site_occupancy
  Mo  Mo0  1  0.03659150  -0.01301280  -0.00761210  1
  Mo  Mo1  1  1.68145000  1.81731000  -0.00057417  1
  Mo  Mo2  1  1.81521000  7.25186000  1.78821000  1
  Mo  Mo3  1  7.26317000  1.84221000  1.81379000  1
  Mo  Mo4  1  3.64252000  0.00149287  3.64788000  1
  Mo  Mo5  1  5.40662000  1.78341000  3.63600000  1
  Mo  Mo6  1  5.47115000  -0.00357452  1.78720000  1
  Mo  Mo7  1  3.63170000  1.77523000  1.84559000  1
  Mo  Mo8  1  7.28978000  3.66124000  0.01115860  1
  Mo  Mo9  1  1.86225000  5.47566000  -0.01689000  1
  Mo  Mo10  1  1.86134000  3.63163000  1.83507000  1
  Mo  Mo11  1  7.28132000  5.41437000  1.79425000  1
  Mo  Mo12  1  3.59170000  3.67549000  3.67713000  1
  Mo  Mo13  1  5.55781000  5.47267000  0.01924060  1
  Mo  Mo14  1  5.42551000  3.65162000  1.83112000  1
  Mo  Mo15  1  3.68754000  5.50474000  1.80961000  1
