# generated using pymatgen
data_Mo
_symmetry_space_group_name_H-M   'P 1'
_cell_length_a   7.28165592
_cell_length_b   7.28165592
_cell_length_c   3.64082789
_cell_angle_alpha   90.00000000
_cell_angle_beta   90.00000000
_cell_angle_gamma   90.00000000
_symmetry_Int_Tables_number   1
_chemical_formula_structural   Mo
_chemical_formula_sum   Mo16
_cell_volume   193.04584401
_cell_formula_units_Z   16
loop_
 _symmetry_equiv_pos_site_id
 _symmetry_equiv_pos_as_xyz
  1  'x, y, z'
loop_
 _atom_site_type_symbol
 _atom_site_label
 _atom_site_symmetry_multiplicity
 _atom_site_fract_x
 _atom_site_fract_y
 _atom_site_fract_z
 _atom_site_occupancy
  Mo  Mo0  1  -0.03797420  -0.01177780  0.02735350  1
  Mo  Mo1  1  1.78752000  1.77223000  -0.03025580  1
  Mo  Mo2  1  1.84322000  7.31360000  1.87519000  1
  Mo  Mo3  1  7.23040000  1.84061000  1.83969000  1
  Mo  Mo4  1  3.65544000  -0.01872600  3.65001000  1
  Mo  Mo5  1  5.50289000  1.82063000  3.60726000  1
  Mo  Mo6  1  5.40302000  -0.01549000  1.80985000  1
  Mo  Mo7  1  3.68359000  1.88258000  1.77246000  1
  Mo  Mo8  1  7.34960000  3.68151000  0.00031188  1
  Mo  Mo9  1  1.79913000  5.50206000  -0.02676970  1
  Mo  Mo10  1  1.87472000  3.59838000  1.84164000  1
  Mo  Mo11  1  7.28912000  5.43205000  1.79439000  1
  Mo  Mo12  1  3.62566000  3.63649000  3.60645000  1
  Mo  Mo13  1  5.44590000  5.47397000  0.04223270  1
  Mo  Mo14  1  5.47421000  3.64205000  1.80392000  1
  Mo  Mo15  1  3.57921000  5.39218000  1.85745000  1
