# generated using pymatgen
data_Mo
_symmetry_space_group_name_H-M   'P 1'
_cell_length_a   7.28165592
_cell_length_b   7.28165592
_cell_length_c   3.64082789
_cell_angle_alpha   90.00000000
_cell_angle_beta   90.00000000
_cell_angle_gamma   90.00000000
_symmetry_Int_Tables_number   1
_chemical_formula_structural   Mo
_chemical_formula_sum   Mo16
_cell_volume   193.04584401
_cell_formula_units_Z   16
loop_
 _symmetry_equiv_pos_site_id
 _symmetry_equiv_pos_as_xyz
  1  'x, y, z'
loop_
 _atom_site_type_symbol
 _atom_site_label
 _atom_site_symmetry_multiplicity
 _atom_site_fract_x
 _atom_site_fract_y
 _atom_site_fract_z
 _atom_site_occupancy
  Mo  Mo0  1  -0.03096160  -0.05429620  -0.01769410  1
  Mo  Mo1  1  1.78953000  1.82689000  0.03694230  1
  Mo  Mo2  1  1.77162000  7.27114000  1.82931000  1
  Mo  Mo3  1  7.21861000  1.79417000  1.85910000  1
  Mo  Mo4  1  3.67271000  -0.00135224  3.59378000  1
  Mo  Mo5  1  5.45122000  1.83290000  3.62245000  1
  Mo  Mo6  1  5.51188000  -0.06056620  1.81803000  1
  Mo  Mo7  1  3.59034000  1.77343000  1.77505000  1
  Mo  Mo8  1  7.28819000  3.64640000  -0.01903180  1
  Mo  Mo9  1  1.88855000  5.45343000  0.00757931  1
  Mo  Mo10  1  1.72335000  3.64406000  1.79532000  1
  Mo  Mo11  1  7.41531000  5.50856000  1.82271000  1
  Mo  Mo12  1  3.57998000  3.64442000  3.63993000  1
  Mo  Mo13  1  5.49621000  5.42978000  -0.01983280  1
  Mo  Mo14  1  5.46564000  3.70310000  1.86016000  1
  Mo  Mo15  1  3.67347000  5.53027000  1.86737000  1
