# generated using pymatgen
data_Mo
_symmetry_space_group_name_H-M   'P 1'
_cell_length_a   7.28165592
_cell_length_b   7.28165592
_cell_length_c   3.64082789
_cell_angle_alpha   90.00000000
_cell_angle_beta   90.00000000
_cell_angle_gamma   90.00000000
_symmetry_Int_Tables_number   1
_chemical_formula_structural   Mo
_chemical_formula_sum   Mo16
_cell_volume   193.04584401
_cell_formula_units_Z   16
loop_
 _symmetry_equiv_pos_site_id
 _symmetry_equiv_pos_as_xyz
  1  'x, y, z'
loop_
 _atom_site_type_symbol
 _atom_site_label
 _atom_site_symmetry_multiplicity
 _atom_site_fract_x
 _atom_site_fract_y
 _atom_site_fract_z
 _atom_site_occupancy
  Mo  Mo0  1  0.04590170  -0.01649550  0.00523687  1
  Mo  Mo1  1  1.80431000  1.83396000  -0.02886550  1
  Mo  Mo2  1  1.80556000  7.31901000  1.76502000  1
  Mo  Mo3  1  7.29001000  1.83319000  1.80726000  1
  Mo  Mo4  1  3.64134000  0.00039269  3.63526000  1
  Mo  Mo5  1  5.44854000  1.80696000  3.65044000  1
  Mo  Mo6  1  5.47164000  0.02007390  1.84977000  1
  Mo  Mo7  1  3.60473000  1.81595000  1.82135000  1
  Mo  Mo8  1  7.26463000  3.65439000  0.02190360  1
  Mo  Mo9  1  1.92166000  5.51356000  0.01850120  1
  Mo  Mo10  1  1.77962000  3.57220000  1.81815000  1
  Mo  Mo11  1  7.29946000  5.43687000  1.83858000  1
  Mo  Mo12  1  3.58513000  3.62823000  3.68556000  1
  Mo  Mo13  1  5.44178000  5.42229000  -0.06336000  1
  Mo  Mo14  1  5.47841000  3.66471000  1.85334000  1
  Mo  Mo15  1  3.62296000  5.43705000  1.79303000  1
