# generated using pymatgen
data_Mo
_symmetry_space_group_name_H-M   'P 1'
_cell_length_a   7.28165592
_cell_length_b   7.28165592
_cell_length_c   3.64082789
_cell_angle_alpha   90.00000000
_cell_angle_beta   90.00000000
_cell_angle_gamma   90.00000000
_symmetry_Int_Tables_number   1
_chemical_formula_structural   Mo
_chemical_formula_sum   Mo16
_cell_volume   193.04584401
_cell_formula_units_Z   16
loop_
 _symmetry_equiv_pos_site_id
 _symmetry_equiv_pos_as_xyz
  1  'x, y, z'
loop_
 _atom_site_type_symbol
 _atom_site_label
 _atom_site_symmetry_multiplicity
 _atom_site_fract_x
 _atom_site_fract_y
 _atom_site_fract_z
 _atom_site_occupancy
  Mo  Mo0  1  0.00358967  0.00185318  0.00061332  1
  Mo  Mo1  1  1.76062000  1.74091000  0.00556001  1
  Mo  Mo2  1  1.86389000  7.30687000  1.81129000  1
  Mo  Mo3  1  7.27460000  1.83063000  1.87419000  1
  Mo  Mo4  1  3.68040000  -0.05205610  3.66577000  1
  Mo  Mo5  1  5.48191000  1.82182000  3.59049000  1
  Mo  Mo6  1  5.49464000  0.01683310  1.79206000  1
  Mo  Mo7  1  3.72272000  1.75614000  1.81529000  1
  Mo  Mo8  1  7.22537000  3.65128000  0.02403070  1
  Mo  Mo9  1  1.82684000  5.50080000  -0.02268930  1
  Mo  Mo10  1  1.77441000  3.60517000  1.86278000  1
  Mo  Mo11  1  7.28757000  5.43926000  1.77102000  1
  Mo  Mo12  1  3.58899000  3.64593000  3.63255000  1
  Mo  Mo13  1  5.49690000  5.54092000  0.03650210  1
  Mo  Mo14  1  5.41591000  3.67449000  1.77802000  1
  Mo  Mo15  1  3.60730000  5.46149000  1.83369000  1
