# generated using pymatgen
data_Mo
_symmetry_space_group_name_H-M   'P 1'
_cell_length_a   7.27808089
_cell_length_b   7.27808089
_cell_length_c   3.63904047
_cell_angle_alpha   90.00000000
_cell_angle_beta   90.00000000
_cell_angle_gamma   90.00000000
_symmetry_Int_Tables_number   1
_chemical_formula_structural   Mo
_chemical_formula_sum   Mo16
_cell_volume   192.76165285
_cell_formula_units_Z   16
loop_
 _symmetry_equiv_pos_site_id
 _symmetry_equiv_pos_as_xyz
  1  'x, y, z'
loop_
 _atom_site_type_symbol
 _atom_site_label
 _atom_site_symmetry_multiplicity
 _atom_site_fract_x
 _atom_site_fract_y
 _atom_site_fract_z
 _atom_site_occupancy
  Mo  Mo0  1  -0.00910750  7.27974000  -0.00456560  1
  Mo  Mo1  1  1.81922000  1.80365000  -0.00219864  1
  Mo  Mo2  1  1.81790000  7.28041000  1.81959000  1
  Mo  Mo3  1  7.26855000  1.82687000  1.81296000  1
  Mo  Mo4  1  3.63887000  7.28805000  3.63894000  1
  Mo  Mo5  1  5.44804000  1.81529000  0.00227433  1
  Mo  Mo6  1  5.47531000  0.00759282  1.82721000  1
  Mo  Mo7  1  3.63209000  1.82297000  1.82102000  1
  Mo  Mo8  1  7.29264000  3.64452000  3.64404000  1
  Mo  Mo9  1  1.82188000  5.44548000  3.64097000  1
  Mo  Mo10  1  1.81005000  3.62468000  1.82090000  1
  Mo  Mo11  1  7.26788000  5.46238000  1.82393000  1
  Mo  Mo12  1  3.65125000  3.64042000  -0.00561574  1
  Mo  Mo13  1  5.45556000  5.45589000  3.64640000  1
  Mo  Mo14  1  5.46044000  3.63763000  1.81091000  1
  Mo  Mo15  1  3.65153000  5.46651000  1.81525000  1
