# generated using pymatgen
data_Mo
_symmetry_space_group_name_H-M   'P 1'
_cell_length_a   7.27808089
_cell_length_b   7.27808089
_cell_length_c   3.63904047
_cell_angle_alpha   90.00000000
_cell_angle_beta   90.00000000
_cell_angle_gamma   90.00000000
_symmetry_Int_Tables_number   1
_chemical_formula_structural   Mo
_chemical_formula_sum   Mo16
_cell_volume   192.76165285
_cell_formula_units_Z   16
loop_
 _symmetry_equiv_pos_site_id
 _symmetry_equiv_pos_as_xyz
  1  'x, y, z'
loop_
 _atom_site_type_symbol
 _atom_site_label
 _atom_site_symmetry_multiplicity
 _atom_site_fract_x
 _atom_site_fract_y
 _atom_site_fract_z
 _atom_site_occupancy
  Mo  Mo0  1  -0.01057780  7.28420000  -0.00614498  1
  Mo  Mo1  1  1.81473000  1.81544000  0.00172203  1
  Mo  Mo2  1  1.81956000  7.26685000  1.82466000  1
  Mo  Mo3  1  7.27153000  1.82120000  1.80811000  1
  Mo  Mo4  1  3.64280000  7.29753000  3.63935000  1
  Mo  Mo5  1  5.46027000  1.82558000  0.00060011  1
  Mo  Mo6  1  5.45989000  -0.00297966  1.81985000  1
  Mo  Mo7  1  3.62902000  1.81315000  1.81736000  1
  Mo  Mo8  1  7.27987000  3.63389000  3.64609000  1
  Mo  Mo9  1  1.81342000  5.45731000  3.63729000  1
  Mo  Mo10  1  1.82655000  3.62709000  1.81032000  1
  Mo  Mo11  1  7.27481000  5.46245000  1.82975000  1
  Mo  Mo12  1  3.64583000  3.63543000  -0.00484723  1
  Mo  Mo13  1  5.47014000  5.46392000  3.64518000  1
  Mo  Mo14  1  5.45284000  3.63906000  1.81546000  1
  Mo  Mo15  1  3.65140000  5.46198000  1.82724000  1
