# generated using pymatgen
data_Mo
_symmetry_space_group_name_H-M   'P 1'
_cell_length_a   7.28100662
_cell_length_b   7.28100662
_cell_length_c   3.64050341
_cell_angle_alpha   90.00000000
_cell_angle_beta   90.00000000
_cell_angle_gamma   90.00000000
_symmetry_Int_Tables_number   1
_chemical_formula_structural   Mo
_chemical_formula_sum   Mo16
_cell_volume   192.99421606
_cell_formula_units_Z   16
loop_
 _symmetry_equiv_pos_site_id
 _symmetry_equiv_pos_as_xyz
  1  'x, y, z'
loop_
 _atom_site_type_symbol
 _atom_site_label
 _atom_site_symmetry_multiplicity
 _atom_site_fract_x
 _atom_site_fract_y
 _atom_site_fract_z
 _atom_site_occupancy
  Mo  Mo0  1  0.00226119  7.24418000  0.01209760  1
  Mo  Mo1  1  1.80576000  1.85712000  3.68333000  1
  Mo  Mo2  1  1.76600000  0.01099610  1.84067000  1
  Mo  Mo3  1  7.26514000  1.84564000  1.74002000  1
  Mo  Mo4  1  3.66784000  7.24850000  0.03666650  1
  Mo  Mo5  1  5.46677000  1.78396000  3.63038000  1
  Mo  Mo6  1  5.57231000  -0.05724000  1.79283000  1
  Mo  Mo7  1  3.59808000  1.75943000  1.77969000  1
  Mo  Mo8  1  7.23626000  3.69892000  3.63039000  1
  Mo  Mo9  1  1.88585000  5.49598000  0.00454771  1
  Mo  Mo10  1  1.79443000  3.66229000  1.85472000  1
  Mo  Mo11  1  0.03578800  5.40353000  1.82894000  1
  Mo  Mo12  1  3.71912000  3.67646000  -0.00277611  1
  Mo  Mo13  1  5.40035000  5.50153000  3.65780000  1
  Mo  Mo14  1  5.44013000  3.61601000  1.77723000  1
  Mo  Mo15  1  3.56792000  5.47669000  1.84545000  1
