# generated using pymatgen
data_Mo
_symmetry_space_group_name_H-M   'P 1'
_cell_length_a   7.28100662
_cell_length_b   7.28100662
_cell_length_c   3.64050341
_cell_angle_alpha   90.00000000
_cell_angle_beta   90.00000000
_cell_angle_gamma   90.00000000
_symmetry_Int_Tables_number   1
_chemical_formula_structural   Mo
_chemical_formula_sum   Mo16
_cell_volume   192.99421606
_cell_formula_units_Z   16
loop_
 _symmetry_equiv_pos_site_id
 _symmetry_equiv_pos_as_xyz
  1  'x, y, z'
loop_
 _atom_site_type_symbol
 _atom_site_label
 _atom_site_symmetry_multiplicity
 _atom_site_fract_x
 _atom_site_fract_y
 _atom_site_fract_z
 _atom_site_occupancy
  Mo  Mo0  1  0.05238840  7.26717000  -0.00668551  1
  Mo  Mo1  1  1.91410000  1.85904000  3.61446000  1
  Mo  Mo2  1  1.77975000  -0.04614530  1.77587000  1
  Mo  Mo3  1  7.28945000  1.80035000  1.82976000  1
  Mo  Mo4  1  3.60228000  7.30240000  0.03703100  1
  Mo  Mo5  1  5.52985000  1.81891000  3.72114000  1
  Mo  Mo6  1  5.43589000  0.04593930  1.86749000  1
  Mo  Mo7  1  3.68652000  1.81970000  1.75618000  1
  Mo  Mo8  1  7.24069000  3.56709000  3.67607000  1
  Mo  Mo9  1  1.79928000  5.44021000  -0.00713339  1
  Mo  Mo10  1  1.82561000  3.66453000  1.77007000  1
  Mo  Mo11  1  -0.01564130  5.42207000  1.78158000  1
  Mo  Mo12  1  3.65727000  3.61742000  -0.02304690  1
  Mo  Mo13  1  5.39893000  5.43848000  3.64215000  1
  Mo  Mo14  1  5.42586000  3.68047000  1.86980000  1
  Mo  Mo15  1  3.60178000  5.52637000  1.80727000  1
