# generated using pymatgen
data_Mo
_symmetry_space_group_name_H-M   'P 1'
_cell_length_a   7.28100662
_cell_length_b   7.28100662
_cell_length_c   3.64050341
_cell_angle_alpha   90.00000000
_cell_angle_beta   90.00000000
_cell_angle_gamma   90.00000000
_symmetry_Int_Tables_number   1
_chemical_formula_structural   Mo
_chemical_formula_sum   Mo16
_cell_volume   192.99421606
_cell_formula_units_Z   16
loop_
 _symmetry_equiv_pos_site_id
 _symmetry_equiv_pos_as_xyz
  1  'x, y, z'
loop_
 _atom_site_type_symbol
 _atom_site_label
 _atom_site_symmetry_multiplicity
 _atom_site_fract_x
 _atom_site_fract_y
 _atom_site_fract_z
 _atom_site_occupancy
  Mo  Mo0  1  -0.01922040  7.25547000  0.03687310  1
  Mo  Mo1  1  1.80000000  1.78025000  3.68024000  1
  Mo  Mo2  1  1.79699000  0.02531550  1.78606000  1
  Mo  Mo3  1  7.25389000  1.84111000  1.81721000  1
  Mo  Mo4  1  3.65220000  7.28900000  0.00733235  1
  Mo  Mo5  1  5.44282000  1.83687000  3.64795000  1
  Mo  Mo6  1  5.54178000  0.05801030  1.85085000  1
  Mo  Mo7  1  3.61556000  1.80030000  1.79849000  1
  Mo  Mo8  1  7.27651000  3.65167000  3.64041000  1
  Mo  Mo9  1  1.86998000  5.42034000  -0.11056900  1
  Mo  Mo10  1  1.83345000  3.61753000  1.87917000  1
  Mo  Mo11  1  0.04837770  5.41676000  1.85778000  1
  Mo  Mo12  1  3.74140000  3.61740000  -0.02569040  1
  Mo  Mo13  1  5.34006000  5.52173000  3.59358000  1
  Mo  Mo14  1  5.47065000  3.60330000  1.82512000  1
  Mo  Mo15  1  3.55955000  5.48895000  1.82719000  1
