# generated using pymatgen
data_Mo
_symmetry_space_group_name_H-M   'P 1'
_cell_length_a   7.28100662
_cell_length_b   7.28100662
_cell_length_c   3.64050341
_cell_angle_alpha   90.00000000
_cell_angle_beta   90.00000000
_cell_angle_gamma   90.00000000
_symmetry_Int_Tables_number   1
_chemical_formula_structural   Mo
_chemical_formula_sum   Mo16
_cell_volume   192.99421606
_cell_formula_units_Z   16
loop_
 _symmetry_equiv_pos_site_id
 _symmetry_equiv_pos_as_xyz
  1  'x, y, z'
loop_
 _atom_site_type_symbol
 _atom_site_label
 _atom_site_symmetry_multiplicity
 _atom_site_fract_x
 _atom_site_fract_y
 _atom_site_fract_z
 _atom_site_occupancy
  Mo  Mo0  1  0.02796180  7.32311000  0.00135472  1
  Mo  Mo1  1  1.78439000  1.86720000  3.70341000  1
  Mo  Mo2  1  1.82552000  -0.02841870  1.81482000  1
  Mo  Mo3  1  7.35435000  1.81580000  1.83554000  1
  Mo  Mo4  1  3.58430000  7.27567000  -0.07031910  1
  Mo  Mo5  1  5.54543000  1.80387000  3.67481000  1
  Mo  Mo6  1  5.38267000  -0.01824120  1.84909000  1
  Mo  Mo7  1  3.65306000  1.84943000  1.83836000  1
  Mo  Mo8  1  7.22263000  3.67655000  3.64973000  1
  Mo  Mo9  1  1.81815000  5.44597000  -0.02615790  1
  Mo  Mo10  1  1.81342000  3.61204000  1.79453000  1
  Mo  Mo11  1  -0.01914150  5.45959000  1.85790000  1
  Mo  Mo12  1  3.66853000  3.62085000  -0.04566620  1
  Mo  Mo13  1  5.48864000  5.46753000  3.62083000  1
  Mo  Mo14  1  5.44025000  3.63932000  1.83017000  1
  Mo  Mo15  1  3.63383000  5.41372000  1.78359000  1
