# generated using pymatgen
data_Mo
_symmetry_space_group_name_H-M   'P 1'
_cell_length_a   7.28100662
_cell_length_b   7.28100662
_cell_length_c   3.64050341
_cell_angle_alpha   90.00000000
_cell_angle_beta   90.00000000
_cell_angle_gamma   90.00000000
_symmetry_Int_Tables_number   1
_chemical_formula_structural   Mo
_chemical_formula_sum   Mo16
_cell_volume   192.99421606
_cell_formula_units_Z   16
loop_
 _symmetry_equiv_pos_site_id
 _symmetry_equiv_pos_as_xyz
  1  'x, y, z'
loop_
 _atom_site_type_symbol
 _atom_site_label
 _atom_site_symmetry_multiplicity
 _atom_site_fract_x
 _atom_site_fract_y
 _atom_site_fract_z
 _atom_site_occupancy
  Mo  Mo0  1  -0.03552970  7.23785000  -0.01608630  1
  Mo  Mo1  1  1.77740000  1.84961000  3.62978000  1
  Mo  Mo2  1  1.71393000  0.01728050  1.83376000  1
  Mo  Mo3  1  7.24799000  1.87269000  1.80408000  1
  Mo  Mo4  1  3.62991000  7.31767000  0.00805168  1
  Mo  Mo5  1  5.39741000  1.85108000  3.54582000  1
  Mo  Mo6  1  5.51641000  -0.01610690  1.83872000  1
  Mo  Mo7  1  3.66444000  1.77055000  1.85765000  1
  Mo  Mo8  1  7.30695000  3.65550000  3.61470000  1
  Mo  Mo9  1  1.88163000  5.44764000  0.06168740  1
  Mo  Mo10  1  1.81708000  3.66010000  1.81212000  1
  Mo  Mo11  1  0.07648060  5.40017000  1.83146000  1
  Mo  Mo12  1  3.64451000  3.69585000  -0.02356780  1
  Mo  Mo13  1  5.46326000  5.43431000  3.71501000  1
  Mo  Mo14  1  5.46422000  3.57461000  1.76098000  1
  Mo  Mo15  1  3.65791000  5.45519000  1.83785000  1
