# generated using pymatgen
data_Mo
_symmetry_space_group_name_H-M   'P 1'
_cell_length_a   7.28100662
_cell_length_b   7.28100662
_cell_length_c   3.64050341
_cell_angle_alpha   90.00000000
_cell_angle_beta   90.00000000
_cell_angle_gamma   90.00000000
_symmetry_Int_Tables_number   1
_chemical_formula_structural   Mo
_chemical_formula_sum   Mo16
_cell_volume   192.99421606
_cell_formula_units_Z   16
loop_
 _symmetry_equiv_pos_site_id
 _symmetry_equiv_pos_as_xyz
  1  'x, y, z'
loop_
 _atom_site_type_symbol
 _atom_site_label
 _atom_site_symmetry_multiplicity
 _atom_site_fract_x
 _atom_site_fract_y
 _atom_site_fract_z
 _atom_site_occupancy
  Mo  Mo0  1  -0.01103910  7.29240000  0.06496270  1
  Mo  Mo1  1  1.82352000  1.76086000  3.60308000  1
  Mo  Mo2  1  1.87980000  -0.03325450  1.83784000  1
  Mo  Mo3  1  7.26980000  1.82981000  1.86275000  1
  Mo  Mo4  1  3.67704000  7.26580000  0.00150104  1
  Mo  Mo5  1  5.48957000  1.81371000  3.71119000  1
  Mo  Mo6  1  5.46163000  0.02849030  1.75523000  1
  Mo  Mo7  1  3.67067000  1.77509000  1.79836000  1
  Mo  Mo8  1  7.33993000  3.61909000  3.66894000  1
  Mo  Mo9  1  1.70970000  5.48708000  -0.06500570  1
  Mo  Mo10  1  1.87535000  3.66613000  1.82626000  1
  Mo  Mo11  1  -0.01132310  5.48269000  1.82220000  1
  Mo  Mo12  1  3.62369000  3.57669000  0.00191039  1
  Mo  Mo13  1  5.41361000  5.49065000  3.55770000  1
  Mo  Mo14  1  5.40553000  3.69467000  1.86414000  1
  Mo  Mo15  1  3.60651000  5.47409000  1.80094000  1
