# generated using pymatgen
data_Mo
_symmetry_space_group_name_H-M   'P 1'
_cell_length_a   7.28100662
_cell_length_b   7.28100662
_cell_length_c   3.64050341
_cell_angle_alpha   90.00000000
_cell_angle_beta   90.00000000
_cell_angle_gamma   90.00000000
_symmetry_Int_Tables_number   1
_chemical_formula_structural   Mo
_chemical_formula_sum   Mo16
_cell_volume   192.99421606
_cell_formula_units_Z   16
loop_
 _symmetry_equiv_pos_site_id
 _symmetry_equiv_pos_as_xyz
  1  'x, y, z'
loop_
 _atom_site_type_symbol
 _atom_site_label
 _atom_site_symmetry_multiplicity
 _atom_site_fract_x
 _atom_site_fract_y
 _atom_site_fract_z
 _atom_site_occupancy
  Mo  Mo0  1  -0.06130510  7.33201000  -0.02012720  1
  Mo  Mo1  1  1.75898000  1.85097000  3.66082000  1
  Mo  Mo2  1  1.72962000  -0.05943120  1.86884000  1
  Mo  Mo3  1  7.28530000  1.83584000  1.88360000  1
  Mo  Mo4  1  3.59153000  7.37487000  -0.03977250  1
  Mo  Mo5  1  5.50779000  1.80311000  3.72052000  1
  Mo  Mo6  1  5.44545000  -0.01516850  1.75386000  1
  Mo  Mo7  1  3.69944000  1.83498000  1.82699000  1
  Mo  Mo8  1  7.24177000  3.61693000  3.69915000  1
  Mo  Mo9  1  1.84613000  5.40709000  -0.06058030  1
  Mo  Mo10  1  1.91509000  3.63434000  1.75120000  1
  Mo  Mo11  1  0.02523110  5.38117000  1.83168000  1
  Mo  Mo12  1  3.66458000  3.61106000  -0.03118140  1
  Mo  Mo13  1  5.45678000  5.45560000  3.61734000  1
  Mo  Mo14  1  5.46169000  3.69285000  1.81863000  1
  Mo  Mo15  1  3.65593000  5.46778000  1.83104000  1
