# generated using pymatgen
data_Mo
_symmetry_space_group_name_H-M   'P 1'
_cell_length_a   7.27808089
_cell_length_b   7.27808089
_cell_length_c   3.63904047
_cell_angle_alpha   90.00000000
_cell_angle_beta   90.00000000
_cell_angle_gamma   90.00000000
_symmetry_Int_Tables_number   1
_chemical_formula_structural   Mo
_chemical_formula_sum   Mo16
_cell_volume   192.76165285
_cell_formula_units_Z   16
loop_
 _symmetry_equiv_pos_site_id
 _symmetry_equiv_pos_as_xyz
  1  'x, y, z'
loop_
 _atom_site_type_symbol
 _atom_site_label
 _atom_site_symmetry_multiplicity
 _atom_site_fract_x
 _atom_site_fract_y
 _atom_site_fract_z
 _atom_site_occupancy
  Mo  Mo0  1  0.01741070  7.27045000  -0.00085786  1
  Mo  Mo1  1  1.81730000  1.81145000  -0.00796469  1
  Mo  Mo2  1  1.81431000  7.27286000  1.81990000  1
  Mo  Mo3  1  7.27184000  1.82176000  1.80916000  1
  Mo  Mo4  1  3.64183000  7.27753000  3.63946000  1
  Mo  Mo5  1  5.44094000  1.81725000  -0.00590271  1
  Mo  Mo6  1  5.45847000  0.00265861  1.81864000  1
  Mo  Mo7  1  3.63504000  1.82461000  1.81419000  1
  Mo  Mo8  1  7.28093000  3.64783000  3.62890000  1
  Mo  Mo9  1  1.82791000  5.45174000  3.64862000  1
  Mo  Mo10  1  1.82160000  3.64504000  1.81876000  1
  Mo  Mo11  1  7.28269000  5.46110000  1.81754000  1
  Mo  Mo12  1  3.63018000  3.64104000  0.01065260  1
  Mo  Mo13  1  5.45407000  5.44854000  3.64276000  1
  Mo  Mo14  1  5.46916000  3.64390000  1.82777000  1
  Mo  Mo15  1  3.63842000  5.46431000  1.83037000  1
