# generated using pymatgen
data_Mo
_symmetry_space_group_name_H-M   'P 1'
_cell_length_a   7.28100662
_cell_length_b   7.28100662
_cell_length_c   3.64050341
_cell_angle_alpha   90.00000000
_cell_angle_beta   90.00000000
_cell_angle_gamma   90.00000000
_symmetry_Int_Tables_number   1
_chemical_formula_structural   Mo
_chemical_formula_sum   Mo16
_cell_volume   192.99421606
_cell_formula_units_Z   16
loop_
 _symmetry_equiv_pos_site_id
 _symmetry_equiv_pos_as_xyz
  1  'x, y, z'
loop_
 _atom_site_type_symbol
 _atom_site_label
 _atom_site_symmetry_multiplicity
 _atom_site_fract_x
 _atom_site_fract_y
 _atom_site_fract_z
 _atom_site_occupancy
  Mo  Mo0  1  -0.04218820  7.30956000  0.03134020  1
  Mo  Mo1  1  1.90276000  1.85465000  3.65562000  1
  Mo  Mo2  1  1.74344000  -0.01126150  1.84140000  1
  Mo  Mo3  1  7.25538000  1.78570000  1.75009000  1
  Mo  Mo4  1  3.63076000  7.29062000  0.01064640  1
  Mo  Mo5  1  5.44231000  1.80050000  3.60289000  1
  Mo  Mo6  1  5.39211000  0.01185970  1.84650000  1
  Mo  Mo7  1  3.62531000  1.79663000  1.76782000  1
  Mo  Mo8  1  7.30406000  3.66161000  3.57585000  1
  Mo  Mo9  1  1.85948000  5.43710000  0.02790910  1
  Mo  Mo10  1  1.84182000  3.62577000  1.80479000  1
  Mo  Mo11  1  0.01060170  5.46322000  1.87835000  1
  Mo  Mo12  1  3.64204000  3.59547000  0.00684634  1
  Mo  Mo13  1  5.46108000  5.41955000  3.68114000  1
  Mo  Mo14  1  5.45040000  3.71810000  1.82129000  1
  Mo  Mo15  1  3.70464000  5.46493000  1.80952000  1
