# generated using pymatgen
data_Mo
_symmetry_space_group_name_H-M   'P 1'
_cell_length_a   7.28100662
_cell_length_b   7.28100662
_cell_length_c   3.64050341
_cell_angle_alpha   90.00000000
_cell_angle_beta   90.00000000
_cell_angle_gamma   90.00000000
_symmetry_Int_Tables_number   1
_chemical_formula_structural   Mo
_chemical_formula_sum   Mo16
_cell_volume   192.99421606
_cell_formula_units_Z   16
loop_
 _symmetry_equiv_pos_site_id
 _symmetry_equiv_pos_as_xyz
  1  'x, y, z'
loop_
 _atom_site_type_symbol
 _atom_site_label
 _atom_site_symmetry_multiplicity
 _atom_site_fract_x
 _atom_site_fract_y
 _atom_site_fract_z
 _atom_site_occupancy
  Mo  Mo0  1  -0.02415640  7.27246000  0.00640498  1
  Mo  Mo1  1  1.79370000  1.79222000  3.61655000  1
  Mo  Mo2  1  1.80876000  -0.10877600  1.73889000  1
  Mo  Mo3  1  7.36754000  1.77231000  1.76896000  1
  Mo  Mo4  1  3.61740000  7.32831000  0.02429930  1
  Mo  Mo5  1  5.51240000  1.84285000  3.71022000  1
  Mo  Mo6  1  5.42192000  -0.05202150  1.83662000  1
  Mo  Mo7  1  3.64669000  1.82666000  1.79474000  1
  Mo  Mo8  1  7.25139000  3.66131000  3.64345000  1
  Mo  Mo9  1  1.83339000  5.47249000  -0.04275570  1
  Mo  Mo10  1  1.86026000  3.65150000  1.84623000  1
  Mo  Mo11  1  -0.00718864  5.43657000  1.84797000  1
  Mo  Mo12  1  3.58186000  3.62447000  0.05779350  1
  Mo  Mo13  1  5.45418000  5.50408000  3.65643000  1
  Mo  Mo14  1  5.42707000  3.70753000  1.78166000  1
  Mo  Mo15  1  3.67879000  5.49202000  1.82453000  1
