# generated using pymatgen
data_Mo
_symmetry_space_group_name_H-M   'P 1'
_cell_length_a   7.28100662
_cell_length_b   7.28100662
_cell_length_c   3.64050341
_cell_angle_alpha   90.00000000
_cell_angle_beta   90.00000000
_cell_angle_gamma   90.00000000
_symmetry_Int_Tables_number   1
_chemical_formula_structural   Mo
_chemical_formula_sum   Mo16
_cell_volume   192.99421606
_cell_formula_units_Z   16
loop_
 _symmetry_equiv_pos_site_id
 _symmetry_equiv_pos_as_xyz
  1  'x, y, z'
loop_
 _atom_site_type_symbol
 _atom_site_label
 _atom_site_symmetry_multiplicity
 _atom_site_fract_x
 _atom_site_fract_y
 _atom_site_fract_z
 _atom_site_occupancy
  Mo  Mo0  1  -0.06252860  7.33137000  0.01971290  1
  Mo  Mo1  1  1.88248000  1.82931000  3.62958000  1
  Mo  Mo2  1  1.77019000  -0.04098920  1.87177000  1
  Mo  Mo3  1  7.23533000  1.75637000  1.80866000  1
  Mo  Mo4  1  3.63938000  7.29921000  0.01459020  1
  Mo  Mo5  1  5.44968000  1.85031000  3.63116000  1
  Mo  Mo6  1  5.38652000  -0.01059970  1.79369000  1
  Mo  Mo7  1  3.66060000  1.87063000  1.76275000  1
  Mo  Mo8  1  7.34772000  3.69542000  3.57428000  1
  Mo  Mo9  1  1.82525000  5.49933000  0.05833500  1
  Mo  Mo10  1  1.78298000  3.62282000  1.77711000  1
  Mo  Mo11  1  0.02851710  5.46155000  1.88975000  1
  Mo  Mo12  1  3.61589000  3.63901000  -0.00772905  1
  Mo  Mo13  1  5.45807000  5.36750000  3.67391000  1
  Mo  Mo14  1  5.55017000  3.62185000  1.80168000  1
  Mo  Mo15  1  3.65375000  5.43092000  1.81275000  1
