# generated using pymatgen
data_Mo
_symmetry_space_group_name_H-M   'P 1'
_cell_length_a   7.28100662
_cell_length_b   7.28100662
_cell_length_c   3.64050341
_cell_angle_alpha   90.00000000
_cell_angle_beta   90.00000000
_cell_angle_gamma   90.00000000
_symmetry_Int_Tables_number   1
_chemical_formula_structural   Mo
_chemical_formula_sum   Mo16
_cell_volume   192.99421606
_cell_formula_units_Z   16
loop_
 _symmetry_equiv_pos_site_id
 _symmetry_equiv_pos_as_xyz
  1  'x, y, z'
loop_
 _atom_site_type_symbol
 _atom_site_label
 _atom_site_symmetry_multiplicity
 _atom_site_fract_x
 _atom_site_fract_y
 _atom_site_fract_z
 _atom_site_occupancy
  Mo  Mo0  1  0.05313680  7.27087000  -0.03407420  1
  Mo  Mo1  1  1.78179000  1.82882000  3.69534000  1
  Mo  Mo2  1  1.78283000  0.01341800  1.81761000  1
  Mo  Mo3  1  7.30753000  1.84431000  1.84807000  1
  Mo  Mo4  1  3.57879000  7.30697000  -0.00035969  1
  Mo  Mo5  1  5.42252000  1.74823000  3.64860000  1
  Mo  Mo6  1  5.52269000  -0.02466950  1.75054000  1
  Mo  Mo7  1  3.63183000  1.82478000  1.84541000  1
  Mo  Mo8  1  7.22897000  3.71908000  3.68308000  1
  Mo  Mo9  1  1.81621000  5.44276000  -0.00144248  1
  Mo  Mo10  1  1.82872000  3.62023000  1.87963000  1
  Mo  Mo11  1  0.00292825  5.39851000  1.79073000  1
  Mo  Mo12  1  3.66319000  3.66562000  0.00607423  1
  Mo  Mo13  1  5.51083000  5.51393000  3.62982000  1
  Mo  Mo14  1  5.44359000  3.58522000  1.77657000  1
  Mo  Mo15  1  3.64845000  5.46593000  1.77640000  1
