# generated using pymatgen
data_Mo
_symmetry_space_group_name_H-M   'P 1'
_cell_length_a   7.28100662
_cell_length_b   7.28100662
_cell_length_c   3.64050341
_cell_angle_alpha   90.00000000
_cell_angle_beta   90.00000000
_cell_angle_gamma   90.00000000
_symmetry_Int_Tables_number   1
_chemical_formula_structural   Mo
_chemical_formula_sum   Mo16
_cell_volume   192.99421606
_cell_formula_units_Z   16
loop_
 _symmetry_equiv_pos_site_id
 _symmetry_equiv_pos_as_xyz
  1  'x, y, z'
loop_
 _atom_site_type_symbol
 _atom_site_label
 _atom_site_symmetry_multiplicity
 _atom_site_fract_x
 _atom_site_fract_y
 _atom_site_fract_z
 _atom_site_occupancy
  Mo  Mo0  1  -0.04448750  7.35390000  0.00901845  1
  Mo  Mo1  1  1.77487000  1.84853000  3.66531000  1
  Mo  Mo2  1  1.84879000  0.02140900  1.84554000  1
  Mo  Mo3  1  7.29971000  1.79053000  1.81858000  1
  Mo  Mo4  1  3.65866000  7.31053000  0.02114480  1
  Mo  Mo5  1  5.51670000  1.86227000  3.63512000  1
  Mo  Mo6  1  5.42065000  -0.04156420  1.82726000  1
  Mo  Mo7  1  3.60954000  1.84913000  1.79389000  1
  Mo  Mo8  1  7.30333000  3.59845000  3.62385000  1
  Mo  Mo9  1  1.79972000  5.48531000  -0.02122650  1
  Mo  Mo10  1  1.83480000  3.67981000  1.92071000  1
  Mo  Mo11  1  -0.03665470  5.44782000  1.85698000  1
  Mo  Mo12  1  3.62590000  3.57939000  -0.04764940  1
  Mo  Mo13  1  5.48640000  5.41774000  3.55689000  1
  Mo  Mo14  1  5.43442000  3.60817000  1.80403000  1
  Mo  Mo15  1  3.69164000  5.41256000  1.80254000  1
