# generated using pymatgen
data_Mo
_symmetry_space_group_name_H-M   'P 1'
_cell_length_a   7.28100662
_cell_length_b   7.28100662
_cell_length_c   3.64050341
_cell_angle_alpha   90.00000000
_cell_angle_beta   90.00000000
_cell_angle_gamma   90.00000000
_symmetry_Int_Tables_number   1
_chemical_formula_structural   Mo
_chemical_formula_sum   Mo16
_cell_volume   192.99421606
_cell_formula_units_Z   16
loop_
 _symmetry_equiv_pos_site_id
 _symmetry_equiv_pos_as_xyz
  1  'x, y, z'
loop_
 _atom_site_type_symbol
 _atom_site_label
 _atom_site_symmetry_multiplicity
 _atom_site_fract_x
 _atom_site_fract_y
 _atom_site_fract_z
 _atom_site_occupancy
  Mo  Mo0  1  0.07388190  7.26881000  0.02718360  1
  Mo  Mo1  1  1.84241000  1.82557000  3.62582000  1
  Mo  Mo2  1  1.84094000  0.07589860  1.78946000  1
  Mo  Mo3  1  7.24546000  1.80841000  1.78261000  1
  Mo  Mo4  1  3.60893000  7.22298000  0.06221700  1
  Mo  Mo5  1  5.45135000  1.75570000  3.61266000  1
  Mo  Mo6  1  5.50201000  0.00117345  1.83143000  1
  Mo  Mo7  1  3.66273000  1.76396000  1.77884000  1
  Mo  Mo8  1  7.23044000  3.71140000  3.62482000  1
  Mo  Mo9  1  1.85310000  5.48001000  0.08085960  1
  Mo  Mo10  1  1.77897000  3.63480000  1.88777000  1
  Mo  Mo11  1  0.06692160  5.46011000  1.81837000  1
  Mo  Mo12  1  3.59267000  3.65599000  0.00297640  1
  Mo  Mo13  1  5.44574000  5.49949000  3.61800000  1
  Mo  Mo14  1  5.40540000  3.58929000  1.79002000  1
  Mo  Mo15  1  3.62306000  5.47041000  1.77897000  1
