# generated using pymatgen
data_Mo
_symmetry_space_group_name_H-M   'P 1'
_cell_length_a   7.28100662
_cell_length_b   7.28100662
_cell_length_c   3.64050341
_cell_angle_alpha   90.00000000
_cell_angle_beta   90.00000000
_cell_angle_gamma   90.00000000
_symmetry_Int_Tables_number   1
_chemical_formula_structural   Mo
_chemical_formula_sum   Mo16
_cell_volume   192.99421606
_cell_formula_units_Z   16
loop_
 _symmetry_equiv_pos_site_id
 _symmetry_equiv_pos_as_xyz
  1  'x, y, z'
loop_
 _atom_site_type_symbol
 _atom_site_label
 _atom_site_symmetry_multiplicity
 _atom_site_fract_x
 _atom_site_fract_y
 _atom_site_fract_z
 _atom_site_occupancy
  Mo  Mo0  1  0.00960663  7.26079000  -0.01489910  1
  Mo  Mo1  1  1.80371000  1.83987000  3.64535000  1
  Mo  Mo2  1  1.78394000  -0.08556630  1.73673000  1
  Mo  Mo3  1  7.30956000  1.85943000  1.77192000  1
  Mo  Mo4  1  3.60084000  7.35489000  -0.04712270  1
  Mo  Mo5  1  5.49848000  1.80546000  3.71070000  1
  Mo  Mo6  1  5.45255000  -0.04903530  1.84009000  1
  Mo  Mo7  1  3.69780000  1.81843000  1.85691000  1
  Mo  Mo8  1  7.21761000  3.64078000  3.65955000  1
  Mo  Mo9  1  1.79514000  5.41295000  -0.03471360  1
  Mo  Mo10  1  1.86017000  3.63375000  1.80744000  1
  Mo  Mo11  1  0.00113578  5.39694000  1.83207000  1
  Mo  Mo12  1  3.66677000  3.62307000  0.05795140  1
  Mo  Mo13  1  5.45748000  5.47526000  3.69976000  1
  Mo  Mo14  1  5.46608000  3.72823000  1.74296000  1
  Mo  Mo15  1  3.60310000  5.50874000  1.84730000  1
