# generated using pymatgen
data_Mo
_symmetry_space_group_name_H-M   'P 1'
_cell_length_a   7.28100662
_cell_length_b   7.28100662
_cell_length_c   3.64050341
_cell_angle_alpha   90.00000000
_cell_angle_beta   90.00000000
_cell_angle_gamma   90.00000000
_symmetry_Int_Tables_number   1
_chemical_formula_structural   Mo
_chemical_formula_sum   Mo16
_cell_volume   192.99421606
_cell_formula_units_Z   16
loop_
 _symmetry_equiv_pos_site_id
 _symmetry_equiv_pos_as_xyz
  1  'x, y, z'
loop_
 _atom_site_type_symbol
 _atom_site_label
 _atom_site_symmetry_multiplicity
 _atom_site_fract_x
 _atom_site_fract_y
 _atom_site_fract_z
 _atom_site_occupancy
  Mo  Mo0  1  0.02886130  7.28265000  -0.07485080  1
  Mo  Mo1  1  1.79818000  1.87632000  3.61147000  1
  Mo  Mo2  1  1.79684000  -0.03205550  1.83100000  1
  Mo  Mo3  1  7.29338000  1.82573000  1.85189000  1
  Mo  Mo4  1  3.60308000  7.38105000  -0.03387040  1
  Mo  Mo5  1  5.54566000  1.80677000  3.64262000  1
  Mo  Mo6  1  5.36989000  -0.01467550  1.84198000  1
  Mo  Mo7  1  3.71051000  1.82181000  1.85800000  1
  Mo  Mo8  1  7.29646000  3.65380000  3.65997000  1
  Mo  Mo9  1  1.78463000  5.45045000  0.01593980  1
  Mo  Mo10  1  1.83297000  3.62704000  1.79192000  1
  Mo  Mo11  1  -0.04536340  5.42236000  1.78939000  1
  Mo  Mo12  1  3.61428000  3.62513000  -0.03565130  1
  Mo  Mo13  1  5.51036000  5.42351000  3.72492000  1
  Mo  Mo14  1  5.41648000  3.65014000  1.84655000  1
  Mo  Mo15  1  3.66777000  5.42397000  1.79074000  1
