# generated using pymatgen
data_Mo
_symmetry_space_group_name_H-M   'P 1'
_cell_length_a   7.28100662
_cell_length_b   7.28100662
_cell_length_c   3.64050341
_cell_angle_alpha   90.00000000
_cell_angle_beta   90.00000000
_cell_angle_gamma   90.00000000
_symmetry_Int_Tables_number   1
_chemical_formula_structural   Mo
_chemical_formula_sum   Mo16
_cell_volume   192.99421606
_cell_formula_units_Z   16
loop_
 _symmetry_equiv_pos_site_id
 _symmetry_equiv_pos_as_xyz
  1  'x, y, z'
loop_
 _atom_site_type_symbol
 _atom_site_label
 _atom_site_symmetry_multiplicity
 _atom_site_fract_x
 _atom_site_fract_y
 _atom_site_fract_z
 _atom_site_occupancy
  Mo  Mo0  1  0.00434378  7.32350000  0.03159430  1
  Mo  Mo1  1  1.75975000  1.87742000  3.63337000  1
  Mo  Mo2  1  1.79282000  -0.01363800  1.80247000  1
  Mo  Mo3  1  7.21403000  1.88044000  1.73918000  1
  Mo  Mo4  1  3.63768000  7.25249000  0.01273440  1
  Mo  Mo5  1  5.44953000  1.78915000  3.56583000  1
  Mo  Mo6  1  5.49413000  -0.00956639  1.86337000  1
  Mo  Mo7  1  3.59605000  1.72144000  1.84202000  1
  Mo  Mo8  1  7.27791000  3.62554000  3.60599000  1
  Mo  Mo9  1  1.81378000  5.35984000  0.00796093  1
  Mo  Mo10  1  1.86976000  3.67411000  1.77082000  1
  Mo  Mo11  1  -0.01214220  5.50715000  1.86873000  1
  Mo  Mo12  1  3.73307000  3.60844000  0.00449980  1
  Mo  Mo13  1  5.46575000  5.48959000  3.68860000  1
  Mo  Mo14  1  5.45032000  3.68680000  1.80585000  1
  Mo  Mo15  1  3.67722000  5.45130000  1.86899000  1
