# generated using pymatgen
data_Mo
_symmetry_space_group_name_H-M   'P 1'
_cell_length_a   7.27808089
_cell_length_b   7.27808089
_cell_length_c   3.63904047
_cell_angle_alpha   90.00000000
_cell_angle_beta   90.00000000
_cell_angle_gamma   90.00000000
_symmetry_Int_Tables_number   1
_chemical_formula_structural   Mo
_chemical_formula_sum   Mo16
_cell_volume   192.76165285
_cell_formula_units_Z   16
loop_
 _symmetry_equiv_pos_site_id
 _symmetry_equiv_pos_as_xyz
  1  'x, y, z'
loop_
 _atom_site_type_symbol
 _atom_site_label
 _atom_site_symmetry_multiplicity
 _atom_site_fract_x
 _atom_site_fract_y
 _atom_site_fract_z
 _atom_site_occupancy
  Mo  Mo0  1  -0.00144537  7.27459000  -0.00416107  1
  Mo  Mo1  1  1.81238000  1.81447000  -0.00573398  1
  Mo  Mo2  1  1.80971000  7.29320000  1.82086000  1
  Mo  Mo3  1  7.28130000  1.81713000  1.81383000  1
  Mo  Mo4  1  3.65300000  7.27195000  3.65031000  1
  Mo  Mo5  1  5.45107000  1.81808000  -0.01598050  1
  Mo  Mo6  1  5.45887000  0.01237730  1.81006000  1
  Mo  Mo7  1  3.63468000  1.81864000  1.81573000  1
  Mo  Mo8  1  7.26751000  3.63616000  3.63051000  1
  Mo  Mo9  1  1.82326000  5.45865000  3.64281000  1
  Mo  Mo10  1  1.82381000  3.63419000  1.81873000  1
  Mo  Mo11  1  7.27335000  5.45276000  1.81615000  1
  Mo  Mo12  1  3.63511000  3.63308000  0.00364992  1
  Mo  Mo13  1  5.46690000  5.45933000  3.64963000  1
  Mo  Mo14  1  5.46122000  3.64027000  1.83707000  1
  Mo  Mo15  1  3.65138000  5.46721000  1.82852000  1
