# generated using pymatgen
data_Mo
_symmetry_space_group_name_H-M   'P 1'
_cell_length_a   7.28100662
_cell_length_b   7.28100662
_cell_length_c   3.64050341
_cell_angle_alpha   90.00000000
_cell_angle_beta   90.00000000
_cell_angle_gamma   90.00000000
_symmetry_Int_Tables_number   1
_chemical_formula_structural   Mo
_chemical_formula_sum   Mo16
_cell_volume   192.99421606
_cell_formula_units_Z   16
loop_
 _symmetry_equiv_pos_site_id
 _symmetry_equiv_pos_as_xyz
  1  'x, y, z'
loop_
 _atom_site_type_symbol
 _atom_site_label
 _atom_site_symmetry_multiplicity
 _atom_site_fract_x
 _atom_site_fract_y
 _atom_site_fract_z
 _atom_site_occupancy
  Mo  Mo0  1  0.00607673  7.34160000  0.00958951  1
  Mo  Mo1  1  1.75405000  1.84363000  3.62784000  1
  Mo  Mo2  1  1.75668000  -0.01469270  1.86234000  1
  Mo  Mo3  1  7.24780000  1.89809000  1.77967000  1
  Mo  Mo4  1  3.57942000  7.19518000  0.01570180  1
  Mo  Mo5  1  5.44002000  1.75838000  3.62236000  1
  Mo  Mo6  1  5.49005000  -0.00210461  1.78843000  1
  Mo  Mo7  1  3.64683000  1.78352000  1.79341000  1
  Mo  Mo8  1  7.20480000  3.71204000  3.58485000  1
  Mo  Mo9  1  1.88324000  5.45091000  0.04319750  1
  Mo  Mo10  1  1.82784000  3.62064000  1.83687000  1
  Mo  Mo11  1  0.04021650  5.42874000  1.82094000  1
  Mo  Mo12  1  3.68301000  3.65250000  0.03857020  1
  Mo  Mo13  1  5.51634000  5.52719000  3.67569000  1
  Mo  Mo14  1  5.45952000  3.59111000  1.77728000  1
  Mo  Mo15  1  3.68810000  5.43726000  1.83527000  1
