# generated using pymatgen
data_Mo
_symmetry_space_group_name_H-M   'P 1'
_cell_length_a   7.28100662
_cell_length_b   7.28100662
_cell_length_c   3.64050341
_cell_angle_alpha   90.00000000
_cell_angle_beta   90.00000000
_cell_angle_gamma   90.00000000
_symmetry_Int_Tables_number   1
_chemical_formula_structural   Mo
_chemical_formula_sum   Mo16
_cell_volume   192.99421606
_cell_formula_units_Z   16
loop_
 _symmetry_equiv_pos_site_id
 _symmetry_equiv_pos_as_xyz
  1  'x, y, z'
loop_
 _atom_site_type_symbol
 _atom_site_label
 _atom_site_symmetry_multiplicity
 _atom_site_fract_x
 _atom_site_fract_y
 _atom_site_fract_z
 _atom_site_occupancy
  Mo  Mo0  1  0.01023740  7.22221000  0.01064750  1
  Mo  Mo1  1  1.87925000  1.80811000  3.65167000  1
  Mo  Mo2  1  1.83018000  0.02923910  1.75351000  1
  Mo  Mo3  1  7.27928000  1.87597000  1.88002000  1
  Mo  Mo4  1  3.63492000  7.29535000  -0.01093000  1
  Mo  Mo5  1  5.42959000  1.82468000  3.62880000  1
  Mo  Mo6  1  5.58037000  0.03141330  1.82370000  1
  Mo  Mo7  1  3.67999000  1.72478000  1.88335000  1
  Mo  Mo8  1  7.25760000  3.63533000  3.69621000  1
  Mo  Mo9  1  1.82547000  5.42283000  -0.06671780  1
  Mo  Mo10  1  1.83225000  3.63707000  1.84438000  1
  Mo  Mo11  1  -0.02303290  5.47775000  1.78210000  1
  Mo  Mo12  1  3.61242000  3.60914000  0.00098837  1
  Mo  Mo13  1  5.36532000  5.55319000  3.67871000  1
  Mo  Mo14  1  5.43365000  3.62534000  1.80427000  1
  Mo  Mo15  1  3.59650000  5.45160000  1.75129000  1
