# generated using pymatgen
data_Mo
_symmetry_space_group_name_H-M   'P 1'
_cell_length_a   7.28100662
_cell_length_b   7.28100662
_cell_length_c   3.64050341
_cell_angle_alpha   90.00000000
_cell_angle_beta   90.00000000
_cell_angle_gamma   90.00000000
_symmetry_Int_Tables_number   1
_chemical_formula_structural   Mo
_chemical_formula_sum   Mo16
_cell_volume   192.99421606
_cell_formula_units_Z   16
loop_
 _symmetry_equiv_pos_site_id
 _symmetry_equiv_pos_as_xyz
  1  'x, y, z'
loop_
 _atom_site_type_symbol
 _atom_site_label
 _atom_site_symmetry_multiplicity
 _atom_site_fract_x
 _atom_site_fract_y
 _atom_site_fract_z
 _atom_site_occupancy
  Mo  Mo0  1  -0.00824076  7.16087000  -0.00662821  1
  Mo  Mo1  1  1.82333000  1.84058000  3.59553000  1
  Mo  Mo2  1  1.74975000  0.03130320  1.76409000  1
  Mo  Mo3  1  7.21427000  1.85370000  1.84459000  1
  Mo  Mo4  1  3.59350000  7.27565000  0.01915240  1
  Mo  Mo5  1  5.49476000  1.86211000  3.65319000  1
  Mo  Mo6  1  5.48311000  0.04855230  1.87271000  1
  Mo  Mo7  1  3.66909000  1.82320000  1.83272000  1
  Mo  Mo8  1  7.31845000  3.66456000  3.63673000  1
  Mo  Mo9  1  1.81493000  5.38377000  0.00383454  1
  Mo  Mo10  1  1.84112000  3.61245000  1.87103000  1
  Mo  Mo11  1  -0.01181600  5.38268000  1.78355000  1
  Mo  Mo12  1  3.74147000  3.66351000  -0.01312220  1
  Mo  Mo13  1  5.41879000  5.50507000  3.59557000  1
  Mo  Mo14  1  5.47855000  3.61785000  1.90022000  1
  Mo  Mo15  1  3.60293000  5.49813000  1.75884000  1
