# generated using pymatgen
data_Mo
_symmetry_space_group_name_H-M   'P 1'
_cell_length_a   7.28100662
_cell_length_b   7.28100662
_cell_length_c   3.64050341
_cell_angle_alpha   90.00000000
_cell_angle_beta   90.00000000
_cell_angle_gamma   90.00000000
_symmetry_Int_Tables_number   1
_chemical_formula_structural   Mo
_chemical_formula_sum   Mo16
_cell_volume   192.99421606
_cell_formula_units_Z   16
loop_
 _symmetry_equiv_pos_site_id
 _symmetry_equiv_pos_as_xyz
  1  'x, y, z'
loop_
 _atom_site_type_symbol
 _atom_site_label
 _atom_site_symmetry_multiplicity
 _atom_site_fract_x
 _atom_site_fract_y
 _atom_site_fract_z
 _atom_site_occupancy
  Mo  Mo0  1  0.04920290  7.33658000  -0.01744720  1
  Mo  Mo1  1  1.76651000  1.80611000  3.62585000  1
  Mo  Mo2  1  1.89553000  0.00534559  1.79963000  1
  Mo  Mo3  1  7.19483000  1.85035000  1.79729000  1
  Mo  Mo4  1  3.61356000  7.24840000  0.07619940  1
  Mo  Mo5  1  5.45067000  1.83758000  3.64943000  1
  Mo  Mo6  1  5.43273000  0.04493610  1.78776000  1
  Mo  Mo7  1  3.64601000  1.82781000  1.82645000  1
  Mo  Mo8  1  7.29244000  3.55480000  3.64687000  1
  Mo  Mo9  1  1.77876000  5.39238000  0.03886320  1
  Mo  Mo10  1  1.89458000  3.64689000  1.75992000  1
  Mo  Mo11  1  0.01776230  5.49218000  1.81844000  1
  Mo  Mo12  1  3.63834000  3.58630000  0.01157570  1
  Mo  Mo13  1  5.49398000  5.46389000  3.61861000  1
  Mo  Mo14  1  5.40951000  3.64273000  1.86879000  1
  Mo  Mo15  1  3.64958000  5.48772000  1.80378000  1
