# generated using pymatgen
data_Mo
_symmetry_space_group_name_H-M   'P 1'
_cell_length_a   7.28100662
_cell_length_b   7.28100662
_cell_length_c   3.64050341
_cell_angle_alpha   90.00000000
_cell_angle_beta   90.00000000
_cell_angle_gamma   90.00000000
_symmetry_Int_Tables_number   1
_chemical_formula_structural   Mo
_chemical_formula_sum   Mo16
_cell_volume   192.99421606
_cell_formula_units_Z   16
loop_
 _symmetry_equiv_pos_site_id
 _symmetry_equiv_pos_as_xyz
  1  'x, y, z'
loop_
 _atom_site_type_symbol
 _atom_site_label
 _atom_site_symmetry_multiplicity
 _atom_site_fract_x
 _atom_site_fract_y
 _atom_site_fract_z
 _atom_site_occupancy
  Mo  Mo0  1  -0.05374510  7.21679000  0.04863820  1
  Mo  Mo1  1  1.86005000  1.82314000  3.61446000  1
  Mo  Mo2  1  1.79222000  0.07361220  1.77993000  1
  Mo  Mo3  1  7.33677000  1.84261000  1.82769000  1
  Mo  Mo4  1  3.62932000  7.29189000  0.01389020  1
  Mo  Mo5  1  5.46125000  1.85560000  3.72952000  1
  Mo  Mo6  1  5.54033000  0.00264874  1.78973000  1
  Mo  Mo7  1  3.59204000  1.86441000  1.78759000  1
  Mo  Mo8  1  7.28092000  3.64428000  3.67843000  1
  Mo  Mo9  1  1.80881000  5.40843000  -0.08756650  1
  Mo  Mo10  1  1.83190000  3.59136000  1.78059000  1
  Mo  Mo11  1  -0.05183590  5.42403000  1.84915000  1
  Mo  Mo12  1  3.72734000  3.58983000  -0.00395360  1
  Mo  Mo13  1  5.34578000  5.48267000  3.56981000  1
  Mo  Mo14  1  5.53183000  3.63019000  1.92133000  1
  Mo  Mo15  1  3.59102000  5.48250000  1.81275000  1
