# generated using pymatgen
data_Mo
_symmetry_space_group_name_H-M   'P 1'
_cell_length_a   7.28100662
_cell_length_b   7.28100662
_cell_length_c   3.64050341
_cell_angle_alpha   90.00000000
_cell_angle_beta   90.00000000
_cell_angle_gamma   90.00000000
_symmetry_Int_Tables_number   1
_chemical_formula_structural   Mo
_chemical_formula_sum   Mo16
_cell_volume   192.99421606
_cell_formula_units_Z   16
loop_
 _symmetry_equiv_pos_site_id
 _symmetry_equiv_pos_as_xyz
  1  'x, y, z'
loop_
 _atom_site_type_symbol
 _atom_site_label
 _atom_site_symmetry_multiplicity
 _atom_site_fract_x
 _atom_site_fract_y
 _atom_site_fract_z
 _atom_site_occupancy
  Mo  Mo0  1  -0.02416150  7.30581000  -0.00760398  1
  Mo  Mo1  1  1.89540000  1.78007000  3.68603000  1
  Mo  Mo2  1  1.75706000  0.01847770  1.84440000  1
  Mo  Mo3  1  7.34272000  1.82511000  1.85745000  1
  Mo  Mo4  1  3.68958000  7.26899000  -0.05650300  1
  Mo  Mo5  1  5.42094000  1.83436000  3.63982000  1
  Mo  Mo6  1  5.46443000  -0.00070778  1.85827000  1
  Mo  Mo7  1  3.64811000  1.77108000  1.82696000  1
  Mo  Mo8  1  7.27368000  3.71960000  3.61249000  1
  Mo  Mo9  1  1.87031000  5.46543000  0.07509130  1
  Mo  Mo10  1  1.77702000  3.57395000  1.78259000  1
  Mo  Mo11  1  -0.03641250  5.49282000  1.80301000  1
  Mo  Mo12  1  3.58815000  3.64454000  -0.02545110  1
  Mo  Mo13  1  5.46577000  5.45069000  3.62803000  1
  Mo  Mo14  1  5.45059000  3.61915000  1.79726000  1
  Mo  Mo15  1  3.64083000  5.45462000  1.79017000  1
