# generated using pymatgen
data_Mo
_symmetry_space_group_name_H-M   'P 1'
_cell_length_a   7.28100662
_cell_length_b   7.28100662
_cell_length_c   3.64050341
_cell_angle_alpha   90.00000000
_cell_angle_beta   90.00000000
_cell_angle_gamma   90.00000000
_symmetry_Int_Tables_number   1
_chemical_formula_structural   Mo
_chemical_formula_sum   Mo16
_cell_volume   192.99421606
_cell_formula_units_Z   16
loop_
 _symmetry_equiv_pos_site_id
 _symmetry_equiv_pos_as_xyz
  1  'x, y, z'
loop_
 _atom_site_type_symbol
 _atom_site_label
 _atom_site_symmetry_multiplicity
 _atom_site_fract_x
 _atom_site_fract_y
 _atom_site_fract_z
 _atom_site_occupancy
  Mo  Mo0  1  -0.02677250  7.30347000  -0.01182190  1
  Mo  Mo1  1  1.76200000  1.92574000  3.67925000  1
  Mo  Mo2  1  1.78020000  -0.06624990  1.85038000  1
  Mo  Mo3  1  7.26230000  1.80821000  1.79055000  1
  Mo  Mo4  1  3.56866000  7.30183000  -0.01061960  1
  Mo  Mo5  1  5.52450000  1.76494000  3.62763000  1
  Mo  Mo6  1  5.37240000  -0.02025080  1.84111000  1
  Mo  Mo7  1  3.64133000  1.86594000  1.76449000  1
  Mo  Mo8  1  7.26001000  3.67268000  3.60918000  1
  Mo  Mo9  1  1.83655000  5.44355000  0.08115110  1
  Mo  Mo10  1  1.85292000  3.63832000  1.80864000  1
  Mo  Mo11  1  0.03589390  5.43206000  1.85901000  1
  Mo  Mo12  1  3.67453000  3.62523000  -0.05363820  1
  Mo  Mo13  1  5.56624000  5.46913000  3.62885000  1
  Mo  Mo14  1  5.47774000  3.59175000  1.76181000  1
  Mo  Mo15  1  3.63549000  5.46765000  1.88604000  1
