# generated using pymatgen
data_Mo
_symmetry_space_group_name_H-M   'P 1'
_cell_length_a   7.28100662
_cell_length_b   7.28100662
_cell_length_c   3.64050341
_cell_angle_alpha   90.00000000
_cell_angle_beta   90.00000000
_cell_angle_gamma   90.00000000
_symmetry_Int_Tables_number   1
_chemical_formula_structural   Mo
_chemical_formula_sum   Mo16
_cell_volume   192.99421606
_cell_formula_units_Z   16
loop_
 _symmetry_equiv_pos_site_id
 _symmetry_equiv_pos_as_xyz
  1  'x, y, z'
loop_
 _atom_site_type_symbol
 _atom_site_label
 _atom_site_symmetry_multiplicity
 _atom_site_fract_x
 _atom_site_fract_y
 _atom_site_fract_z
 _atom_site_occupancy
  Mo  Mo0  1  0.01263820  7.26884000  -0.02269970  1
  Mo  Mo1  1  1.77809000  1.81871000  3.63302000  1
  Mo  Mo2  1  1.83900000  0.01723990  1.80526000  1
  Mo  Mo3  1  7.28431000  1.85505000  1.86203000  1
  Mo  Mo4  1  3.62641000  7.32584000  -0.04945440  1
  Mo  Mo5  1  5.39787000  1.83526000  3.60371000  1
  Mo  Mo6  1  5.50394000  -0.09373370  1.77550000  1
  Mo  Mo7  1  3.60355000  1.77288000  1.89560000  1
  Mo  Mo8  1  7.30891000  3.64191000  3.67455000  1
  Mo  Mo9  1  1.76874000  5.43604000  0.03402170  1
  Mo  Mo10  1  1.87615000  3.65404000  1.82984000  1
  Mo  Mo11  1  0.02462350  5.46513000  1.78863000  1
  Mo  Mo12  1  3.68794000  3.64905000  0.02809410  1
  Mo  Mo13  1  5.49603000  5.45622000  3.55623000  1
  Mo  Mo14  1  5.41456000  3.64173000  1.81118000  1
  Mo  Mo15  1  3.60123000  5.47979000  1.88649000  1
