# generated using pymatgen
data_Mo
_symmetry_space_group_name_H-M   'P 1'
_cell_length_a   7.28100662
_cell_length_b   7.28100662
_cell_length_c   3.64050341
_cell_angle_alpha   90.00000000
_cell_angle_beta   90.00000000
_cell_angle_gamma   90.00000000
_symmetry_Int_Tables_number   1
_chemical_formula_structural   Mo
_chemical_formula_sum   Mo16
_cell_volume   192.99421606
_cell_formula_units_Z   16
loop_
 _symmetry_equiv_pos_site_id
 _symmetry_equiv_pos_as_xyz
  1  'x, y, z'
loop_
 _atom_site_type_symbol
 _atom_site_label
 _atom_site_symmetry_multiplicity
 _atom_site_fract_x
 _atom_site_fract_y
 _atom_site_fract_z
 _atom_site_occupancy
  Mo  Mo0  1  0.05219540  7.26391000  0.02249410  1
  Mo  Mo1  1  1.89301000  1.82908000  3.63824000  1
  Mo  Mo2  1  1.76519000  -0.00174364  1.85046000  1
  Mo  Mo3  1  7.31840000  1.80606000  1.85104000  1
  Mo  Mo4  1  3.58910000  7.27302000  -0.04345700  1
  Mo  Mo5  1  5.49254000  1.78243000  3.67108000  1
  Mo  Mo6  1  5.44868000  0.06186560  1.84254000  1
  Mo  Mo7  1  3.72200000  1.84680000  1.79059000  1
  Mo  Mo8  1  7.19863000  3.61492000  3.58845000  1
  Mo  Mo9  1  1.84804000  5.48185000  -0.04964550  1
  Mo  Mo10  1  1.82610000  3.60394000  1.85906000  1
  Mo  Mo11  1  0.00287972  5.35454000  1.82991000  1
  Mo  Mo12  1  3.63043000  3.66720000  0.00257260  1
  Mo  Mo13  1  5.41648000  5.48797000  3.64416000  1
  Mo  Mo14  1  5.40658000  3.61884000  1.85940000  1
  Mo  Mo15  1  3.61375000  5.53332000  1.75511000  1
