# generated using pymatgen
data_Mo
_symmetry_space_group_name_H-M   'P 1'
_cell_length_a   7.28100662
_cell_length_b   7.28100662
_cell_length_c   3.64050341
_cell_angle_alpha   90.00000000
_cell_angle_beta   90.00000000
_cell_angle_gamma   90.00000000
_symmetry_Int_Tables_number   1
_chemical_formula_structural   Mo
_chemical_formula_sum   Mo16
_cell_volume   192.99421606
_cell_formula_units_Z   16
loop_
 _symmetry_equiv_pos_site_id
 _symmetry_equiv_pos_as_xyz
  1  'x, y, z'
loop_
 _atom_site_type_symbol
 _atom_site_label
 _atom_site_symmetry_multiplicity
 _atom_site_fract_x
 _atom_site_fract_y
 _atom_site_fract_z
 _atom_site_occupancy
  Mo  Mo0  1  -0.03334100  7.20940000  0.02310980  1
  Mo  Mo1  1  1.90684000  1.86651000  3.64107000  1
  Mo  Mo2  1  1.72268000  -0.01329060  1.79850000  1
  Mo  Mo3  1  7.32835000  1.83031000  1.84270000  1
  Mo  Mo4  1  3.61319000  7.29160000  -0.04142980  1
  Mo  Mo5  1  5.46438000  1.82973000  3.72948000  1
  Mo  Mo6  1  5.51640000  -0.03612300  1.82194000  1
  Mo  Mo7  1  3.63560000  1.80975000  1.78158000  1
  Mo  Mo8  1  7.26950000  3.67771000  3.67509000  1
  Mo  Mo9  1  1.82241000  5.45838000  -0.05015310  1
  Mo  Mo10  1  1.80298000  3.59740000  1.83497000  1
  Mo  Mo11  1  -0.00493195  5.37814000  1.81996000  1
  Mo  Mo12  1  3.71608000  3.67998000  -0.02683250  1
  Mo  Mo13  1  5.42053000  5.53326000  3.64517000  1
  Mo  Mo14  1  5.49644000  3.63055000  1.83361000  1
  Mo  Mo15  1  3.54689000  5.48069000  1.78324000  1
