# generated using pymatgen
data_Mo
_symmetry_space_group_name_H-M   'P 1'
_cell_length_a   7.27808089
_cell_length_b   7.27808089
_cell_length_c   3.63904047
_cell_angle_alpha   90.00000000
_cell_angle_beta   90.00000000
_cell_angle_gamma   90.00000000
_symmetry_Int_Tables_number   1
_chemical_formula_structural   Mo
_chemical_formula_sum   Mo16
_cell_volume   192.76165285
_cell_formula_units_Z   16
loop_
 _symmetry_equiv_pos_site_id
 _symmetry_equiv_pos_as_xyz
  1  'x, y, z'
loop_
 _atom_site_type_symbol
 _atom_site_label
 _atom_site_symmetry_multiplicity
 _atom_site_fract_x
 _atom_site_fract_y
 _atom_site_fract_z
 _atom_site_occupancy
  Mo  Mo0  1  0.00076593  7.27826000  -0.00421527  1
  Mo  Mo1  1  1.82264000  1.82988000  0.00836237  1
  Mo  Mo2  1  1.82818000  7.27408000  1.82319000  1
  Mo  Mo3  1  7.28634000  1.81937000  1.82092000  1
  Mo  Mo4  1  3.63830000  7.28628000  3.63709000  1
  Mo  Mo5  1  5.47024000  1.82113000  0.00715332  1
  Mo  Mo6  1  5.45237000  -0.01898180  1.81791000  1
  Mo  Mo7  1  3.63691000  1.81429000  1.82843000  1
  Mo  Mo8  1  7.27852000  3.64081000  3.64892000  1
  Mo  Mo9  1  1.81211000  5.46366000  3.62836000  1
  Mo  Mo10  1  1.81892000  3.64321000  1.81786000  1
  Mo  Mo11  1  7.27355000  5.45984000  1.82446000  1
  Mo  Mo12  1  3.63696000  3.64087000  -0.00664679  1
  Mo  Mo13  1  5.45262000  5.45640000  3.62946000  1
  Mo  Mo14  1  5.45467000  3.64435000  1.81640000  1
  Mo  Mo15  1  3.63898000  5.44864000  1.81434000  1
