# generated using pymatgen
data_Mo
_symmetry_space_group_name_H-M   'P 1'
_cell_length_a   7.28100662
_cell_length_b   7.28100662
_cell_length_c   3.64050341
_cell_angle_alpha   90.00000000
_cell_angle_beta   90.00000000
_cell_angle_gamma   90.00000000
_symmetry_Int_Tables_number   1
_chemical_formula_structural   Mo
_chemical_formula_sum   Mo16
_cell_volume   192.99421606
_cell_formula_units_Z   16
loop_
 _symmetry_equiv_pos_site_id
 _symmetry_equiv_pos_as_xyz
  1  'x, y, z'
loop_
 _atom_site_type_symbol
 _atom_site_label
 _atom_site_symmetry_multiplicity
 _atom_site_fract_x
 _atom_site_fract_y
 _atom_site_fract_z
 _atom_site_occupancy
  Mo  Mo0  1  -0.04654400  7.35670000  -0.01160190  1
  Mo  Mo1  1  1.72239000  1.79731000  3.60395000  1
  Mo  Mo2  1  1.82773000  -0.01667310  1.79689000  1
  Mo  Mo3  1  7.22735000  1.90096000  1.77940000  1
  Mo  Mo4  1  3.62401000  7.22689000  0.01243210  1
  Mo  Mo5  1  5.43658000  1.86554000  3.57556000  1
  Mo  Mo6  1  5.50017000  -0.07221700  1.82929000  1
  Mo  Mo7  1  3.64006000  1.73608000  1.88159000  1
  Mo  Mo8  1  7.31287000  3.66564000  3.67324000  1
  Mo  Mo9  1  1.82059000  5.42764000  -0.00619428  1
  Mo  Mo10  1  1.86099000  3.66525000  1.76444000  1
  Mo  Mo11  1  0.04403150  5.49761000  1.83933000  1
  Mo  Mo12  1  3.67432000  3.65419000  0.00073055  1
  Mo  Mo13  1  5.52926000  5.46016000  3.67653000  1
  Mo  Mo14  1  5.43750000  3.62001000  1.81542000  1
  Mo  Mo15  1  3.61269000  5.43891000  1.88100000  1
