# generated using pymatgen
data_Mo
_symmetry_space_group_name_H-M   'P 1'
_cell_length_a   7.28100662
_cell_length_b   7.28100662
_cell_length_c   3.64050341
_cell_angle_alpha   90.00000000
_cell_angle_beta   90.00000000
_cell_angle_gamma   90.00000000
_symmetry_Int_Tables_number   1
_chemical_formula_structural   Mo
_chemical_formula_sum   Mo16
_cell_volume   192.99421606
_cell_formula_units_Z   16
loop_
 _symmetry_equiv_pos_site_id
 _symmetry_equiv_pos_as_xyz
  1  'x, y, z'
loop_
 _atom_site_type_symbol
 _atom_site_label
 _atom_site_symmetry_multiplicity
 _atom_site_fract_x
 _atom_site_fract_y
 _atom_site_fract_z
 _atom_site_occupancy
  Mo  Mo0  1  -0.03444110  7.31961000  -0.03152990  1
  Mo  Mo1  1  1.82904000  1.82208000  3.63890000  1
  Mo  Mo2  1  1.80784000  -0.00559115  1.83202000  1
  Mo  Mo3  1  7.24118000  1.73282000  1.81758000  1
  Mo  Mo4  1  3.66747000  7.28427000  0.04221380  1
  Mo  Mo5  1  5.39757000  1.82504000  3.57016000  1
  Mo  Mo6  1  5.40225000  -0.02458850  1.82436000  1
  Mo  Mo7  1  3.59725000  1.86905000  1.77903000  1
  Mo  Mo8  1  7.32788000  3.66054000  3.58764000  1
  Mo  Mo9  1  1.87710000  5.47796000  0.03692260  1
  Mo  Mo10  1  1.78753000  3.58819000  1.87663000  1
  Mo  Mo11  1  0.01736660  5.48807000  1.86806000  1
  Mo  Mo12  1  3.63545000  3.66334000  -0.01214570  1
  Mo  Mo13  1  5.43643000  5.42730000  3.67340000  1
  Mo  Mo14  1  5.51531000  3.65101000  1.75441000  1
  Mo  Mo15  1  3.71876000  5.44488000  1.85434000  1
