# generated using pymatgen
data_Mo
_symmetry_space_group_name_H-M   'P 1'
_cell_length_a   7.28100662
_cell_length_b   7.28100662
_cell_length_c   3.64050341
_cell_angle_alpha   90.00000000
_cell_angle_beta   90.00000000
_cell_angle_gamma   90.00000000
_symmetry_Int_Tables_number   1
_chemical_formula_structural   Mo
_chemical_formula_sum   Mo16
_cell_volume   192.99421606
_cell_formula_units_Z   16
loop_
 _symmetry_equiv_pos_site_id
 _symmetry_equiv_pos_as_xyz
  1  'x, y, z'
loop_
 _atom_site_type_symbol
 _atom_site_label
 _atom_site_symmetry_multiplicity
 _atom_site_fract_x
 _atom_site_fract_y
 _atom_site_fract_z
 _atom_site_occupancy
  Mo  Mo0  1  0.05559000  7.32861000  0.01434150  1
  Mo  Mo1  1  1.78878000  1.84196000  3.67614000  1
  Mo  Mo2  1  1.92469000  0.06754280  1.81127000  1
  Mo  Mo3  1  7.19498000  1.84651000  1.79392000  1
  Mo  Mo4  1  3.66017000  7.25043000  0.03479990  1
  Mo  Mo5  1  5.43004000  1.80828000  3.53980000  1
  Mo  Mo6  1  5.45127000  -0.03541110  1.83503000  1
  Mo  Mo7  1  3.59657000  1.82141000  1.79607000  1
  Mo  Mo8  1  7.28585000  3.57687000  3.54826000  1
  Mo  Mo9  1  1.73240000  5.43618000  0.03004660  1
  Mo  Mo10  1  1.84367000  3.66970000  1.87632000  1
  Mo  Mo11  1  -0.01604040  5.52356000  1.83047000  1
  Mo  Mo12  1  3.63999000  3.55700000  0.03230190  1
  Mo  Mo13  1  5.55105000  5.43672000  3.62439000  1
  Mo  Mo14  1  5.40868000  3.63454000  1.79819000  1
  Mo  Mo15  1  3.67630000  5.46011000  1.87064000  1
