# generated using pymatgen
data_Mo
_symmetry_space_group_name_H-M   'P 1'
_cell_length_a   7.28100662
_cell_length_b   7.28100662
_cell_length_c   3.64050341
_cell_angle_alpha   90.00000000
_cell_angle_beta   90.00000000
_cell_angle_gamma   90.00000000
_symmetry_Int_Tables_number   1
_chemical_formula_structural   Mo
_chemical_formula_sum   Mo16
_cell_volume   192.99421606
_cell_formula_units_Z   16
loop_
 _symmetry_equiv_pos_site_id
 _symmetry_equiv_pos_as_xyz
  1  'x, y, z'
loop_
 _atom_site_type_symbol
 _atom_site_label
 _atom_site_symmetry_multiplicity
 _atom_site_fract_x
 _atom_site_fract_y
 _atom_site_fract_z
 _atom_site_occupancy
  Mo  Mo0  1  0.05227580  7.28056000  -0.03424910  1
  Mo  Mo1  1  1.86698000  1.80193000  3.60915000  1
  Mo  Mo2  1  1.89747000  -0.04284330  1.82654000  1
  Mo  Mo3  1  7.23577000  1.76791000  1.84471000  1
  Mo  Mo4  1  3.67417000  7.26964000  0.01773650  1
  Mo  Mo5  1  5.43145000  1.82425000  3.69180000  1
  Mo  Mo6  1  5.46595000  0.03237350  1.76706000  1
  Mo  Mo7  1  3.64149000  1.83896000  1.86179000  1
  Mo  Mo8  1  7.24250000  3.64565000  3.60500000  1
  Mo  Mo9  1  1.85223000  5.47374000  -0.02010350  1
  Mo  Mo10  1  1.74957000  3.63470000  1.81946000  1
  Mo  Mo11  1  0.00303905  5.50392000  1.79798000  1
  Mo  Mo12  1  3.61491000  3.62927000  0.04989230  1
  Mo  Mo13  1  5.38884000  5.48310000  3.60553000  1
  Mo  Mo14  1  5.47752000  3.61589000  1.87480000  1
  Mo  Mo15  1  3.62984000  5.46495000  1.79490000  1
