# generated using pymatgen
data_Mo
_symmetry_space_group_name_H-M   'P 1'
_cell_length_a   7.28100662
_cell_length_b   7.28100662
_cell_length_c   3.64050341
_cell_angle_alpha   90.00000000
_cell_angle_beta   90.00000000
_cell_angle_gamma   90.00000000
_symmetry_Int_Tables_number   1
_chemical_formula_structural   Mo
_chemical_formula_sum   Mo16
_cell_volume   192.99421606
_cell_formula_units_Z   16
loop_
 _symmetry_equiv_pos_site_id
 _symmetry_equiv_pos_as_xyz
  1  'x, y, z'
loop_
 _atom_site_type_symbol
 _atom_site_label
 _atom_site_symmetry_multiplicity
 _atom_site_fract_x
 _atom_site_fract_y
 _atom_site_fract_z
 _atom_site_occupancy
  Mo  Mo0  1  -0.03626450  7.25169000  -0.02900790  1
  Mo  Mo1  1  1.87114000  1.84068000  3.66948000  1
  Mo  Mo2  1  1.77119000  0.01409200  1.78847000  1
  Mo  Mo3  1  7.30986000  1.80765000  1.78572000  1
  Mo  Mo4  1  3.69195000  7.24598000  -0.02233300  1
  Mo  Mo5  1  5.39833000  1.83403000  3.62737000  1
  Mo  Mo6  1  5.43838000  0.01604470  1.88739000  1
  Mo  Mo7  1  3.60732000  1.93053000  1.79123000  1
  Mo  Mo8  1  7.27556000  3.64299000  3.62214000  1
  Mo  Mo9  1  1.84612000  5.45317000  0.03704750  1
  Mo  Mo10  1  1.75557000  3.63249000  1.80573000  1
  Mo  Mo11  1  -0.00104699  5.45736000  1.81570000  1
  Mo  Mo12  1  3.61489000  3.65238000  0.02577030  1
  Mo  Mo13  1  5.51342000  5.39909000  3.65698000  1
  Mo  Mo14  1  5.52569000  3.58437000  1.82218000  1
  Mo  Mo15  1  3.64189000  5.46146000  1.82813000  1
