# generated using pymatgen
data_Mo
_symmetry_space_group_name_H-M   'P 1'
_cell_length_a   7.28100662
_cell_length_b   7.28100662
_cell_length_c   3.64050341
_cell_angle_alpha   90.00000000
_cell_angle_beta   90.00000000
_cell_angle_gamma   90.00000000
_symmetry_Int_Tables_number   1
_chemical_formula_structural   Mo
_chemical_formula_sum   Mo16
_cell_volume   192.99421606
_cell_formula_units_Z   16
loop_
 _symmetry_equiv_pos_site_id
 _symmetry_equiv_pos_as_xyz
  1  'x, y, z'
loop_
 _atom_site_type_symbol
 _atom_site_label
 _atom_site_symmetry_multiplicity
 _atom_site_fract_x
 _atom_site_fract_y
 _atom_site_fract_z
 _atom_site_occupancy
  Mo  Mo0  1  -0.01645690  7.34638000  -0.05393180  1
  Mo  Mo1  1  1.89975000  1.82671000  3.66902000  1
  Mo  Mo2  1  1.77930000  -0.05455890  1.75340000  1
  Mo  Mo3  1  7.31132000  1.76549000  1.88202000  1
  Mo  Mo4  1  3.66838000  7.28261000  0.01007790  1
  Mo  Mo5  1  5.56524000  1.87792000  3.73189000  1
  Mo  Mo6  1  5.46049000  -0.02809170  1.84844000  1
  Mo  Mo7  1  3.66844000  1.86144000  1.78342000  1
  Mo  Mo8  1  7.30309000  3.65167000  3.64372000  1
  Mo  Mo9  1  1.80658000  5.52121000  -0.03469090  1
  Mo  Mo10  1  1.73711000  3.57697000  1.80747000  1
  Mo  Mo11  1  -0.03090640  5.45511000  1.81041000  1
  Mo  Mo12  1  3.54124000  3.64517000  -0.01941170  1
  Mo  Mo13  1  5.40908000  5.36754000  3.67038000  1
  Mo  Mo14  1  5.50553000  3.65607000  1.83816000  1
  Mo  Mo15  1  3.61581000  5.47236000  1.77162000  1
