# generated using pymatgen
data_Mo
_symmetry_space_group_name_H-M   'P 1'
_cell_length_a   7.28100662
_cell_length_b   7.28100662
_cell_length_c   3.64050341
_cell_angle_alpha   90.00000000
_cell_angle_beta   90.00000000
_cell_angle_gamma   90.00000000
_symmetry_Int_Tables_number   1
_chemical_formula_structural   Mo
_chemical_formula_sum   Mo16
_cell_volume   192.99421606
_cell_formula_units_Z   16
loop_
 _symmetry_equiv_pos_site_id
 _symmetry_equiv_pos_as_xyz
  1  'x, y, z'
loop_
 _atom_site_type_symbol
 _atom_site_label
 _atom_site_symmetry_multiplicity
 _atom_site_fract_x
 _atom_site_fract_y
 _atom_site_fract_z
 _atom_site_occupancy
  Mo  Mo0  1  -0.04914360  7.28024000  -0.03662270  1
  Mo  Mo1  1  1.89482000  1.76489000  3.67741000  1
  Mo  Mo2  1  1.80692000  0.00923476  1.80310000  1
  Mo  Mo3  1  7.34680000  1.77025000  1.84912000  1
  Mo  Mo4  1  3.64467000  7.20097000  -0.02253440  1
  Mo  Mo5  1  5.46285000  1.83818000  3.69532000  1
  Mo  Mo6  1  5.42044000  0.04419470  1.81898000  1
  Mo  Mo7  1  3.63274000  1.90683000  1.80431000  1
  Mo  Mo8  1  7.26380000  3.60089000  3.69103000  1
  Mo  Mo9  1  1.83368000  5.46374000  -0.02101400  1
  Mo  Mo10  1  1.79107000  3.62386000  1.76739000  1
  Mo  Mo11  1  -0.04298440  5.50293000  1.81019000  1
  Mo  Mo12  1  3.64774000  3.66830000  0.00754436  1
  Mo  Mo13  1  5.42994000  5.44097000  3.58386000  1
  Mo  Mo14  1  5.55780000  3.62232000  1.91326000  1
  Mo  Mo15  1  3.58286000  5.48620000  1.77067000  1
