# generated using pymatgen
data_Mo
_symmetry_space_group_name_H-M   'P 1'
_cell_length_a   7.28100662
_cell_length_b   7.28100662
_cell_length_c   3.64050341
_cell_angle_alpha   90.00000000
_cell_angle_beta   90.00000000
_cell_angle_gamma   90.00000000
_symmetry_Int_Tables_number   1
_chemical_formula_structural   Mo
_chemical_formula_sum   Mo16
_cell_volume   192.99421606
_cell_formula_units_Z   16
loop_
 _symmetry_equiv_pos_site_id
 _symmetry_equiv_pos_as_xyz
  1  'x, y, z'
loop_
 _atom_site_type_symbol
 _atom_site_label
 _atom_site_symmetry_multiplicity
 _atom_site_fract_x
 _atom_site_fract_y
 _atom_site_fract_z
 _atom_site_occupancy
  Mo  Mo0  1  -0.05303510  7.22793000  0.04968940  1
  Mo  Mo1  1  1.76149000  1.73006000  3.62390000  1
  Mo  Mo2  1  1.87103000  0.04952640  1.79871000  1
  Mo  Mo3  1  7.31468000  1.85794000  1.79477000  1
  Mo  Mo4  1  3.65632000  7.26532000  -0.03121130  1
  Mo  Mo5  1  5.48922000  1.89250000  3.59195000  1
  Mo  Mo6  1  5.42308000  0.01720200  1.87050000  1
  Mo  Mo7  1  3.68166000  1.85351000  1.86062000  1
  Mo  Mo8  1  7.34124000  3.58384000  3.68236000  1
  Mo  Mo9  1  1.74825000  5.49959000  -0.05930820  1
  Mo  Mo10  1  1.81523000  3.68682000  1.82476000  1
  Mo  Mo11  1  -0.01705750  5.47733000  1.83407000  1
  Mo  Mo12  1  3.66050000  3.65147000  -0.01807480  1
  Mo  Mo13  1  5.45182000  5.41500000  3.65840000  1
  Mo  Mo14  1  5.51636000  3.61984000  1.81996000  1
  Mo  Mo15  1  3.56322000  5.39612000  1.81090000  1
