# generated using pymatgen
data_Mo
_symmetry_space_group_name_H-M   'P 1'
_cell_length_a   7.27808089
_cell_length_b   7.27808089
_cell_length_c   3.63904047
_cell_angle_alpha   90.00000000
_cell_angle_beta   90.00000000
_cell_angle_gamma   90.00000000
_symmetry_Int_Tables_number   1
_chemical_formula_structural   Mo
_chemical_formula_sum   Mo16
_cell_volume   192.76165285
_cell_formula_units_Z   16
loop_
 _symmetry_equiv_pos_site_id
 _symmetry_equiv_pos_as_xyz
  1  'x, y, z'
loop_
 _atom_site_type_symbol
 _atom_site_label
 _atom_site_symmetry_multiplicity
 _atom_site_fract_x
 _atom_site_fract_y
 _atom_site_fract_z
 _atom_site_occupancy
  Mo  Mo0  1  -0.00418313  7.25632000  -0.01194820  1
  Mo  Mo1  1  1.82817000  1.82831000  -0.00739532  1
  Mo  Mo2  1  1.82455000  7.28593000  1.81870000  1
  Mo  Mo3  1  7.28545000  1.82057000  1.80122000  1
  Mo  Mo4  1  3.63087000  7.27057000  3.63618000  1
  Mo  Mo5  1  5.45484000  1.82193000  0.00084249  1
  Mo  Mo6  1  5.46916000  0.00353631  1.82936000  1
  Mo  Mo7  1  3.63417000  1.81410000  1.82467000  1
  Mo  Mo8  1  7.28325000  3.64300000  3.64646000  1
  Mo  Mo9  1  1.82010000  5.46857000  3.63768000  1
  Mo  Mo10  1  1.80929000  3.64885000  1.82675000  1
  Mo  Mo11  1  7.28744000  5.45258000  1.82412000  1
  Mo  Mo12  1  3.63561000  3.64116000  0.01322840  1
  Mo  Mo13  1  5.45531000  5.45754000  3.63359000  1
  Mo  Mo14  1  5.44588000  3.63877000  1.80920000  1
  Mo  Mo15  1  3.64218000  5.45036000  1.82935000  1
