# generated using pymatgen
data_Mo
_symmetry_space_group_name_H-M   'P 1'
_cell_length_a   7.28100662
_cell_length_b   7.28100662
_cell_length_c   3.64050341
_cell_angle_alpha   90.00000000
_cell_angle_beta   90.00000000
_cell_angle_gamma   90.00000000
_symmetry_Int_Tables_number   1
_chemical_formula_structural   Mo
_chemical_formula_sum   Mo16
_cell_volume   192.99421606
_cell_formula_units_Z   16
loop_
 _symmetry_equiv_pos_site_id
 _symmetry_equiv_pos_as_xyz
  1  'x, y, z'
loop_
 _atom_site_type_symbol
 _atom_site_label
 _atom_site_symmetry_multiplicity
 _atom_site_fract_x
 _atom_site_fract_y
 _atom_site_fract_z
 _atom_site_occupancy
  Mo  Mo0  1  0.06896830  7.22054000  0.00816333  1
  Mo  Mo1  1  1.80827000  1.80659000  3.63763000  1
  Mo  Mo2  1  1.84770000  0.09228890  1.83631000  1
  Mo  Mo3  1  7.21300000  1.88121000  1.78480000  1
  Mo  Mo4  1  3.66788000  7.26804000  0.05599880  1
  Mo  Mo5  1  5.44717000  1.77144000  3.60541000  1
  Mo  Mo6  1  5.53177000  0.05477220  1.81329000  1
  Mo  Mo7  1  3.58821000  1.73259000  1.81317000  1
  Mo  Mo8  1  7.30184000  3.71357000  3.63503000  1
  Mo  Mo9  1  1.85641000  5.47608000  0.11468000  1
  Mo  Mo10  1  1.78802000  3.66162000  1.82085000  1
  Mo  Mo11  1  -0.01193030  5.47244000  1.78672000  1
  Mo  Mo12  1  3.67220000  3.59502000  -0.02701300  1
  Mo  Mo13  1  5.41801000  5.43880000  3.61727000  1
  Mo  Mo14  1  5.41925000  3.57460000  1.81698000  1
  Mo  Mo15  1  3.60723000  5.46441000  1.79271000  1
