# generated using pymatgen
data_Mo
_symmetry_space_group_name_H-M   'P 1'
_cell_length_a   7.28100662
_cell_length_b   7.28100662
_cell_length_c   3.64050341
_cell_angle_alpha   90.00000000
_cell_angle_beta   90.00000000
_cell_angle_gamma   90.00000000
_symmetry_Int_Tables_number   1
_chemical_formula_structural   Mo
_chemical_formula_sum   Mo16
_cell_volume   192.99421606
_cell_formula_units_Z   16
loop_
 _symmetry_equiv_pos_site_id
 _symmetry_equiv_pos_as_xyz
  1  'x, y, z'
loop_
 _atom_site_type_symbol
 _atom_site_label
 _atom_site_symmetry_multiplicity
 _atom_site_fract_x
 _atom_site_fract_y
 _atom_site_fract_z
 _atom_site_occupancy
  Mo  Mo0  1  -0.00781417  7.34610000  0.01094030  1
  Mo  Mo1  1  1.77397000  1.86169000  3.66426000  1
  Mo  Mo2  1  1.79042000  -0.01462780  1.83690000  1
  Mo  Mo3  1  7.31336000  1.85821000  1.84358000  1
  Mo  Mo4  1  3.60996000  7.36813000  -0.04474420  1
  Mo  Mo5  1  5.47921000  1.78775000  3.63967000  1
  Mo  Mo6  1  5.45321000  -0.06353060  1.84219000  1
  Mo  Mo7  1  3.66297000  1.77568000  1.83797000  1
  Mo  Mo8  1  7.19454000  3.66032000  3.63058000  1
  Mo  Mo9  1  1.86329000  5.48091000  -0.03068900  1
  Mo  Mo10  1  1.86079000  3.63107000  1.88357000  1
  Mo  Mo11  1  0.03638310  5.42983000  1.88618000  1
  Mo  Mo12  1  3.60099000  3.53249000  -0.02189420  1
  Mo  Mo13  1  5.48036000  5.44919000  3.59379000  1
  Mo  Mo14  1  5.42809000  3.63951000  1.69829000  1
  Mo  Mo15  1  3.68426000  5.48129000  1.84141000  1
