# generated using pymatgen
data_Mo
_symmetry_space_group_name_H-M   'P 1'
_cell_length_a   7.28100662
_cell_length_b   7.28100662
_cell_length_c   3.64050341
_cell_angle_alpha   90.00000000
_cell_angle_beta   90.00000000
_cell_angle_gamma   90.00000000
_symmetry_Int_Tables_number   1
_chemical_formula_structural   Mo
_chemical_formula_sum   Mo16
_cell_volume   192.99421606
_cell_formula_units_Z   16
loop_
 _symmetry_equiv_pos_site_id
 _symmetry_equiv_pos_as_xyz
  1  'x, y, z'
loop_
 _atom_site_type_symbol
 _atom_site_label
 _atom_site_symmetry_multiplicity
 _atom_site_fract_x
 _atom_site_fract_y
 _atom_site_fract_z
 _atom_site_occupancy
  Mo  Mo0  1  0.03779330  7.26109000  0.07878180  1
  Mo  Mo1  1  1.80097000  1.85097000  3.58047000  1
  Mo  Mo2  1  1.78819000  0.03885630  1.88746000  1
  Mo  Mo3  1  7.24444000  1.85139000  1.84921000  1
  Mo  Mo4  1  3.57103000  7.26339000  0.03627570  1
  Mo  Mo5  1  5.43663000  1.80721000  3.61739000  1
  Mo  Mo6  1  5.49598000  0.01913400  1.78204000  1
  Mo  Mo7  1  3.62824000  1.81922000  1.78946000  1
  Mo  Mo8  1  7.30025000  3.60829000  3.64744000  1
  Mo  Mo9  1  1.81705000  5.40190000  0.03510760  1
  Mo  Mo10  1  1.78993000  3.70796000  1.80536000  1
  Mo  Mo11  1  0.00280302  5.46605000  1.81689000  1
  Mo  Mo12  1  3.72217000  3.64272000  -0.01144780  1
  Mo  Mo13  1  5.38959000  5.45598000  3.61462000  1
  Mo  Mo14  1  5.56385000  3.61899000  1.80167000  1
  Mo  Mo15  1  3.63508000  5.41086000  1.78129000  1
