# generated using pymatgen
data_Mo
_symmetry_space_group_name_H-M   'P 1'
_cell_length_a   7.28100662
_cell_length_b   7.28100662
_cell_length_c   3.64050341
_cell_angle_alpha   90.00000000
_cell_angle_beta   90.00000000
_cell_angle_gamma   90.00000000
_symmetry_Int_Tables_number   1
_chemical_formula_structural   Mo
_chemical_formula_sum   Mo16
_cell_volume   192.99421606
_cell_formula_units_Z   16
loop_
 _symmetry_equiv_pos_site_id
 _symmetry_equiv_pos_as_xyz
  1  'x, y, z'
loop_
 _atom_site_type_symbol
 _atom_site_label
 _atom_site_symmetry_multiplicity
 _atom_site_fract_x
 _atom_site_fract_y
 _atom_site_fract_z
 _atom_site_occupancy
  Mo  Mo0  1  0.01179040  7.24140000  0.00801544  1
  Mo  Mo1  1  1.79812000  1.81147000  3.63912000  1
  Mo  Mo2  1  1.79123000  0.07242400  1.87224000  1
  Mo  Mo3  1  7.26514000  1.84827000  1.75070000  1
  Mo  Mo4  1  3.69199000  7.30331000  0.03981340  1
  Mo  Mo5  1  5.38433000  1.77341000  3.64703000  1
  Mo  Mo6  1  5.57650000  -0.02795950  1.76848000  1
  Mo  Mo7  1  3.56309000  1.73331000  1.79001000  1
  Mo  Mo8  1  7.25091000  3.72992000  3.60071000  1
  Mo  Mo9  1  1.87101000  5.45801000  0.02631650  1
  Mo  Mo10  1  1.80268000  3.62429000  1.84830000  1
  Mo  Mo11  1  0.05019260  5.41412000  1.83727000  1
  Mo  Mo12  1  3.72595000  3.60731000  -0.00145523  1
  Mo  Mo13  1  5.40672000  5.51393000  3.57383000  1
  Mo  Mo14  1  5.41179000  3.64644000  1.82502000  1
  Mo  Mo15  1  3.62255000  5.47435000  1.88659000  1
