# generated using pymatgen
data_Mo
_symmetry_space_group_name_H-M   'P 1'
_cell_length_a   7.28100662
_cell_length_b   7.28100662
_cell_length_c   3.64050341
_cell_angle_alpha   90.00000000
_cell_angle_beta   90.00000000
_cell_angle_gamma   90.00000000
_symmetry_Int_Tables_number   1
_chemical_formula_structural   Mo
_chemical_formula_sum   Mo16
_cell_volume   192.99421606
_cell_formula_units_Z   16
loop_
 _symmetry_equiv_pos_site_id
 _symmetry_equiv_pos_as_xyz
  1  'x, y, z'
loop_
 _atom_site_type_symbol
 _atom_site_label
 _atom_site_symmetry_multiplicity
 _atom_site_fract_x
 _atom_site_fract_y
 _atom_site_fract_z
 _atom_site_occupancy
  Mo  Mo0  1  -0.02598900  7.21531000  -0.04752210  1
  Mo  Mo1  1  1.84900000  1.82512000  3.61235000  1
  Mo  Mo2  1  1.71900000  0.02810420  1.80640000  1
  Mo  Mo3  1  7.32791000  1.82284000  1.83094000  1
  Mo  Mo4  1  3.63531000  7.31978000  -0.03753640  1
  Mo  Mo5  1  5.43455000  1.86227000  3.64106000  1
  Mo  Mo6  1  5.51569000  -0.06452010  1.82211000  1
  Mo  Mo7  1  3.64332000  1.78884000  1.85194000  1
  Mo  Mo8  1  7.28176000  3.63997000  3.61289000  1
  Mo  Mo9  1  1.85752000  5.48305000  0.07707840  1
  Mo  Mo10  1  1.80608000  3.57521000  1.78368000  1
  Mo  Mo11  1  -0.00194517  5.42789000  1.78367000  1
  Mo  Mo12  1  3.61939000  3.70786000  0.02558580  1
  Mo  Mo13  1  5.45884000  5.46296000  3.67101000  1
  Mo  Mo14  1  5.45529000  3.61356000  1.83665000  1
  Mo  Mo15  1  3.64828000  5.51576000  1.84170000  1
