# generated using pymatgen
data_Mo
_symmetry_space_group_name_H-M   'P 1'
_cell_length_a   7.28100662
_cell_length_b   7.28100662
_cell_length_c   3.64050341
_cell_angle_alpha   90.00000000
_cell_angle_beta   90.00000000
_cell_angle_gamma   90.00000000
_symmetry_Int_Tables_number   1
_chemical_formula_structural   Mo
_chemical_formula_sum   Mo16
_cell_volume   192.99421606
_cell_formula_units_Z   16
loop_
 _symmetry_equiv_pos_site_id
 _symmetry_equiv_pos_as_xyz
  1  'x, y, z'
loop_
 _atom_site_type_symbol
 _atom_site_label
 _atom_site_symmetry_multiplicity
 _atom_site_fract_x
 _atom_site_fract_y
 _atom_site_fract_z
 _atom_site_occupancy
  Mo  Mo0  1  -0.07105030  7.25926000  0.02035990  1
  Mo  Mo1  1  1.89622000  1.81792000  3.64260000  1
  Mo  Mo2  1  1.76682000  -0.08040360  1.79175000  1
  Mo  Mo3  1  7.35197000  1.78010000  1.87039000  1
  Mo  Mo4  1  3.60830000  7.22989000  -0.07536490  1
  Mo  Mo5  1  5.43521000  1.81582000  3.66479000  1
  Mo  Mo6  1  5.41877000  0.00702554  1.84377000  1
  Mo  Mo7  1  3.72110000  1.87891000  1.85973000  1
  Mo  Mo8  1  7.24721000  3.63154000  3.69280000  1
  Mo  Mo9  1  1.80871000  5.52117000  -0.03243620  1
  Mo  Mo10  1  1.75868000  3.62238000  1.82921000  1
  Mo  Mo11  1  0.02162910  5.45920000  1.80836000  1
  Mo  Mo12  1  3.61733000  3.76624000  0.01793590  1
  Mo  Mo13  1  5.47040000  5.45266000  3.66225000  1
  Mo  Mo14  1  5.56339000  3.61531000  1.73247000  1
  Mo  Mo15  1  3.60932000  5.44698000  1.78338000  1
