# generated using pymatgen
data_Mo
_symmetry_space_group_name_H-M   'P 1'
_cell_length_a   7.28100662
_cell_length_b   7.28100662
_cell_length_c   3.64050341
_cell_angle_alpha   90.00000000
_cell_angle_beta   90.00000000
_cell_angle_gamma   90.00000000
_symmetry_Int_Tables_number   1
_chemical_formula_structural   Mo
_chemical_formula_sum   Mo16
_cell_volume   192.99421606
_cell_formula_units_Z   16
loop_
 _symmetry_equiv_pos_site_id
 _symmetry_equiv_pos_as_xyz
  1  'x, y, z'
loop_
 _atom_site_type_symbol
 _atom_site_label
 _atom_site_symmetry_multiplicity
 _atom_site_fract_x
 _atom_site_fract_y
 _atom_site_fract_z
 _atom_site_occupancy
  Mo  Mo0  1  0.02191640  7.30064000  -0.00174610  1
  Mo  Mo1  1  1.79308000  1.83490000  3.61988000  1
  Mo  Mo2  1  1.76677000  -0.02645150  1.77331000  1
  Mo  Mo3  1  7.30409000  1.82682000  1.90247000  1
  Mo  Mo4  1  3.57646000  7.36947000  -0.08736730  1
  Mo  Mo5  1  5.56892000  1.81690000  3.69455000  1
  Mo  Mo6  1  5.37136000  0.01985730  1.87178000  1
  Mo  Mo7  1  3.72534000  1.80120000  1.85296000  1
  Mo  Mo8  1  7.28784000  3.61936000  3.65224000  1
  Mo  Mo9  1  1.82268000  5.42415000  0.00181674  1
  Mo  Mo10  1  1.88485000  3.57793000  1.78695000  1
  Mo  Mo11  1  -0.04036060  5.41913000  1.77267000  1
  Mo  Mo12  1  3.61291000  3.62459000  0.01141720  1
  Mo  Mo13  1  5.46068000  5.45731000  3.70451000  1
  Mo  Mo14  1  5.40899000  3.68979000  1.81824000  1
  Mo  Mo15  1  3.65847000  5.46842000  1.73832000  1
