# generated using pymatgen
data_Mo
_symmetry_space_group_name_H-M   'P 1'
_cell_length_a   7.28100662
_cell_length_b   7.28100662
_cell_length_c   3.64050341
_cell_angle_alpha   90.00000000
_cell_angle_beta   90.00000000
_cell_angle_gamma   90.00000000
_symmetry_Int_Tables_number   1
_chemical_formula_structural   Mo
_chemical_formula_sum   Mo16
_cell_volume   192.99421606
_cell_formula_units_Z   16
loop_
 _symmetry_equiv_pos_site_id
 _symmetry_equiv_pos_as_xyz
  1  'x, y, z'
loop_
 _atom_site_type_symbol
 _atom_site_label
 _atom_site_symmetry_multiplicity
 _atom_site_fract_x
 _atom_site_fract_y
 _atom_site_fract_z
 _atom_site_occupancy
  Mo  Mo0  1  0.00046154  7.36160000  -0.01636380  1
  Mo  Mo1  1  1.88006000  1.84133000  3.62635000  1
  Mo  Mo2  1  1.78547000  0.01799930  1.85384000  1
  Mo  Mo3  1  7.26792000  1.82977000  1.76825000  1
  Mo  Mo4  1  3.65645000  7.28780000  -0.02118270  1
  Mo  Mo5  1  5.34312000  1.79606000  3.62208000  1
  Mo  Mo6  1  5.47970000  0.04271610  1.82784000  1
  Mo  Mo7  1  3.64903000  1.77806000  1.84961000  1
  Mo  Mo8  1  7.20078000  3.66869000  3.61243000  1
  Mo  Mo9  1  1.89441000  5.47768000  0.02381310  1
  Mo  Mo10  1  1.74192000  3.57681000  1.86033000  1
  Mo  Mo11  1  0.08088310  5.43887000  1.80309000  1
  Mo  Mo12  1  3.64262000  3.65945000  0.01968540  1
  Mo  Mo13  1  5.49405000  5.47234000  3.65780000  1
  Mo  Mo14  1  5.46432000  3.58120000  1.75085000  1
  Mo  Mo15  1  3.64280000  5.39362000  1.87358000  1
