# generated using pymatgen
data_Mo
_symmetry_space_group_name_H-M   'P 1'
_cell_length_a   7.28100662
_cell_length_b   7.28100662
_cell_length_c   3.64050341
_cell_angle_alpha   90.00000000
_cell_angle_beta   90.00000000
_cell_angle_gamma   90.00000000
_symmetry_Int_Tables_number   1
_chemical_formula_structural   Mo
_chemical_formula_sum   Mo16
_cell_volume   192.99421606
_cell_formula_units_Z   16
loop_
 _symmetry_equiv_pos_site_id
 _symmetry_equiv_pos_as_xyz
  1  'x, y, z'
loop_
 _atom_site_type_symbol
 _atom_site_label
 _atom_site_symmetry_multiplicity
 _atom_site_fract_x
 _atom_site_fract_y
 _atom_site_fract_z
 _atom_site_occupancy
  Mo  Mo0  1  0.04633740  7.20630000  -0.01755400  1
  Mo  Mo1  1  1.83810000  1.82069000  3.60763000  1
  Mo  Mo2  1  1.80281000  0.06550720  1.82032000  1
  Mo  Mo3  1  7.27164000  1.82228000  1.79009000  1
  Mo  Mo4  1  3.61264000  7.22640000  0.03589780  1
  Mo  Mo5  1  5.50440000  1.81624000  3.56777000  1
  Mo  Mo6  1  5.53274000  -0.01303640  1.82399000  1
  Mo  Mo7  1  3.63736000  1.78452000  1.80633000  1
  Mo  Mo8  1  7.26588000  3.70568000  3.58555000  1
  Mo  Mo9  1  1.82493000  5.41725000  -0.01232010  1
  Mo  Mo10  1  1.80842000  3.60835000  1.82762000  1
  Mo  Mo11  1  -0.02318320  5.42297000  1.79382000  1
  Mo  Mo12  1  3.64673000  3.67576000  0.03090420  1
  Mo  Mo13  1  5.41469000  5.51584000  3.67117000  1
  Mo  Mo14  1  5.41129000  3.66505000  1.93608000  1
  Mo  Mo15  1  3.62921000  5.48420000  1.84470000  1
