# generated using pymatgen
data_Mo
_symmetry_space_group_name_H-M   'P 1'
_cell_length_a   7.28100662
_cell_length_b   7.28100662
_cell_length_c   3.64050341
_cell_angle_alpha   90.00000000
_cell_angle_beta   90.00000000
_cell_angle_gamma   90.00000000
_symmetry_Int_Tables_number   1
_chemical_formula_structural   Mo
_chemical_formula_sum   Mo16
_cell_volume   192.99421606
_cell_formula_units_Z   16
loop_
 _symmetry_equiv_pos_site_id
 _symmetry_equiv_pos_as_xyz
  1  'x, y, z'
loop_
 _atom_site_type_symbol
 _atom_site_label
 _atom_site_symmetry_multiplicity
 _atom_site_fract_x
 _atom_site_fract_y
 _atom_site_fract_z
 _atom_site_occupancy
  Mo  Mo0  1  -0.01225130  7.29297000  -0.01556580  1
  Mo  Mo1  1  1.84837000  1.82508000  3.64106000  1
  Mo  Mo2  1  1.82449000  0.07189570  1.88762000  1
  Mo  Mo3  1  7.29792000  1.85498000  1.81566000  1
  Mo  Mo4  1  3.68404000  7.27961000  0.01979080  1
  Mo  Mo5  1  5.39528000  1.78421000  3.60742000  1
  Mo  Mo6  1  5.47638000  0.04237520  1.75706000  1
  Mo  Mo7  1  3.61868000  1.82946000  1.85130000  1
  Mo  Mo8  1  7.26741000  3.66628000  3.67362000  1
  Mo  Mo9  1  1.86172000  5.50034000  0.10368700  1
  Mo  Mo10  1  1.75985000  3.60532000  1.74930000  1
  Mo  Mo11  1  -0.01204110  5.49137000  1.78902000  1
  Mo  Mo12  1  3.58939000  3.62470000  -0.00828197  1
  Mo  Mo13  1  5.45458000  5.37655000  3.63734000  1
  Mo  Mo14  1  5.50044000  3.56460000  1.76200000  1
  Mo  Mo15  1  3.66974000  5.41426000  1.84097000  1
