# generated using pymatgen
data_Mo
_symmetry_space_group_name_H-M   'P 1'
_cell_length_a   7.27808089
_cell_length_b   7.27808089
_cell_length_c   3.63904047
_cell_angle_alpha   90.00000000
_cell_angle_beta   90.00000000
_cell_angle_gamma   90.00000000
_symmetry_Int_Tables_number   1
_chemical_formula_structural   Mo
_chemical_formula_sum   Mo16
_cell_volume   192.76165285
_cell_formula_units_Z   16
loop_
 _symmetry_equiv_pos_site_id
 _symmetry_equiv_pos_as_xyz
  1  'x, y, z'
loop_
 _atom_site_type_symbol
 _atom_site_label
 _atom_site_symmetry_multiplicity
 _atom_site_fract_x
 _atom_site_fract_y
 _atom_site_fract_z
 _atom_site_occupancy
  Mo  Mo0  1  -0.00039648  7.27927000  0.01007350  1
  Mo  Mo1  1  1.82617000  1.82422000  0.00142286  1
  Mo  Mo2  1  1.81233000  7.27924000  1.81384000  1
  Mo  Mo3  1  7.27757000  1.81002000  1.83278000  1
  Mo  Mo4  1  3.62835000  7.26685000  3.64794000  1
  Mo  Mo5  1  5.45890000  1.82802000  -0.00061985  1
  Mo  Mo6  1  5.45591000  0.00613406  1.81926000  1
  Mo  Mo7  1  3.65583000  1.81735000  1.82601000  1
  Mo  Mo8  1  7.27598000  3.63757000  3.64530000  1
  Mo  Mo9  1  1.82585000  5.45939000  3.63506000  1
  Mo  Mo10  1  1.81403000  3.64801000  1.82350000  1
  Mo  Mo11  1  7.27863000  5.44938000  1.81921000  1
  Mo  Mo12  1  3.63711000  3.63757000  -0.01243780  1
  Mo  Mo13  1  5.45215000  5.46481000  3.63618000  1
  Mo  Mo14  1  5.46697000  3.64631000  1.81794000  1
  Mo  Mo15  1  3.63671000  5.44794000  1.79653000  1
