# generated using pymatgen
data_Mo
_symmetry_space_group_name_H-M   'P 1'
_cell_length_a   7.28100662
_cell_length_b   7.28100662
_cell_length_c   3.64050341
_cell_angle_alpha   90.00000000
_cell_angle_beta   90.00000000
_cell_angle_gamma   90.00000000
_symmetry_Int_Tables_number   1
_chemical_formula_structural   Mo
_chemical_formula_sum   Mo16
_cell_volume   192.99421606
_cell_formula_units_Z   16
loop_
 _symmetry_equiv_pos_site_id
 _symmetry_equiv_pos_as_xyz
  1  'x, y, z'
loop_
 _atom_site_type_symbol
 _atom_site_label
 _atom_site_symmetry_multiplicity
 _atom_site_fract_x
 _atom_site_fract_y
 _atom_site_fract_z
 _atom_site_occupancy
  Mo  Mo0  1  -0.01366910  7.35621000  -0.06445690  1
  Mo  Mo1  1  1.83478000  1.82735000  3.66847000  1
  Mo  Mo2  1  1.76598000  -0.05698810  1.86648000  1
  Mo  Mo3  1  7.20598000  1.79224000  1.81263000  1
  Mo  Mo4  1  3.65728000  7.24458000  0.03642670  1
  Mo  Mo5  1  5.44869000  1.83568000  3.59867000  1
  Mo  Mo6  1  5.40942000  0.00198209  1.82767000  1
  Mo  Mo7  1  3.62614000  1.78710000  1.76614000  1
  Mo  Mo8  1  7.28258000  3.65439000  3.59538000  1
  Mo  Mo9  1  1.90729000  5.51854000  0.06605670  1
  Mo  Mo10  1  1.77419000  3.62916000  1.87126000  1
  Mo  Mo11  1  0.07526450  5.47963000  1.84023000  1
  Mo  Mo12  1  3.60062000  3.61564000  -0.02804810  1
  Mo  Mo13  1  5.47582000  5.37903000  3.61222000  1
  Mo  Mo14  1  5.45980000  3.67168000  1.78581000  1
  Mo  Mo15  1  3.71384000  5.48778000  1.85705000  1
