# generated using pymatgen
data_Mo
_symmetry_space_group_name_H-M   'P 1'
_cell_length_a   7.28100662
_cell_length_b   7.28100662
_cell_length_c   3.64050341
_cell_angle_alpha   90.00000000
_cell_angle_beta   90.00000000
_cell_angle_gamma   90.00000000
_symmetry_Int_Tables_number   1
_chemical_formula_structural   Mo
_chemical_formula_sum   Mo16
_cell_volume   192.99421606
_cell_formula_units_Z   16
loop_
 _symmetry_equiv_pos_site_id
 _symmetry_equiv_pos_as_xyz
  1  'x, y, z'
loop_
 _atom_site_type_symbol
 _atom_site_label
 _atom_site_symmetry_multiplicity
 _atom_site_fract_x
 _atom_site_fract_y
 _atom_site_fract_z
 _atom_site_occupancy
  Mo  Mo0  1  0.01600580  7.28744000  0.00111590  1
  Mo  Mo1  1  1.77871000  1.74585000  3.64230000  1
  Mo  Mo2  1  1.84350000  0.00757453  1.75200000  1
  Mo  Mo3  1  7.27318000  1.80581000  1.79763000  1
  Mo  Mo4  1  3.65691000  7.27468000  0.01513730  1
  Mo  Mo5  1  5.51418000  1.80180000  3.65666000  1
  Mo  Mo6  1  5.47663000  0.01509860  1.82762000  1
  Mo  Mo7  1  3.63795000  1.80188000  1.81684000  1
  Mo  Mo8  1  7.31750000  3.59538000  3.67265000  1
  Mo  Mo9  1  1.74447000  5.48840000  -0.11962600  1
  Mo  Mo10  1  1.88880000  3.66961000  1.88474000  1
  Mo  Mo11  1  -0.01672030  5.41387000  1.83125000  1
  Mo  Mo12  1  3.64692000  3.63827000  0.03055080  1
  Mo  Mo13  1  5.42449000  5.44309000  3.64269000  1
  Mo  Mo14  1  5.40499000  3.71930000  1.83445000  1
  Mo  Mo15  1  3.61648000  5.51596000  1.82600000  1
