# generated using pymatgen
data_Mo
_symmetry_space_group_name_H-M   'P 1'
_cell_length_a   7.28100662
_cell_length_b   7.28100662
_cell_length_c   3.64050341
_cell_angle_alpha   90.00000000
_cell_angle_beta   90.00000000
_cell_angle_gamma   90.00000000
_symmetry_Int_Tables_number   1
_chemical_formula_structural   Mo
_chemical_formula_sum   Mo16
_cell_volume   192.99421606
_cell_formula_units_Z   16
loop_
 _symmetry_equiv_pos_site_id
 _symmetry_equiv_pos_as_xyz
  1  'x, y, z'
loop_
 _atom_site_type_symbol
 _atom_site_label
 _atom_site_symmetry_multiplicity
 _atom_site_fract_x
 _atom_site_fract_y
 _atom_site_fract_z
 _atom_site_occupancy
  Mo  Mo0  1  0.02177640  7.29156000  -0.02369740  1
  Mo  Mo1  1  1.81322000  1.81811000  3.65692000  1
  Mo  Mo2  1  1.89931000  -0.08440360  1.85154000  1
  Mo  Mo3  1  7.25867000  1.78837000  1.83679000  1
  Mo  Mo4  1  3.61999000  7.30958000  0.00483402  1
  Mo  Mo5  1  5.46854000  1.83011000  3.61014000  1
  Mo  Mo6  1  5.39013000  -0.05226480  1.80048000  1
  Mo  Mo7  1  3.62341000  1.79728000  1.84666000  1
  Mo  Mo8  1  7.30031000  3.65238000  3.64829000  1
  Mo  Mo9  1  1.80679000  5.53140000  0.02186990  1
  Mo  Mo10  1  1.80018000  3.61490000  1.83187000  1
  Mo  Mo11  1  -0.03950000  5.53859000  1.79147000  1
  Mo  Mo12  1  3.58308000  3.62860000  -0.03707950  1
  Mo  Mo13  1  5.54626000  5.50517000  3.71904000  1
  Mo  Mo14  1  5.43834000  3.64657000  1.75822000  1
  Mo  Mo15  1  3.69349000  5.40805000  1.79465000  1
