# generated using pymatgen
data_Mo
_symmetry_space_group_name_H-M   'P 1'
_cell_length_a   7.28100662
_cell_length_b   7.28100662
_cell_length_c   3.64050341
_cell_angle_alpha   90.00000000
_cell_angle_beta   90.00000000
_cell_angle_gamma   90.00000000
_symmetry_Int_Tables_number   1
_chemical_formula_structural   Mo
_chemical_formula_sum   Mo16
_cell_volume   192.99421606
_cell_formula_units_Z   16
loop_
 _symmetry_equiv_pos_site_id
 _symmetry_equiv_pos_as_xyz
  1  'x, y, z'
loop_
 _atom_site_type_symbol
 _atom_site_label
 _atom_site_symmetry_multiplicity
 _atom_site_fract_x
 _atom_site_fract_y
 _atom_site_fract_z
 _atom_site_occupancy
  Mo  Mo0  1  0.02200210  7.31480000  -0.00675111  1
  Mo  Mo1  1  1.80693000  1.82379000  3.64804000  1
  Mo  Mo2  1  1.88124000  0.02535440  1.83964000  1
  Mo  Mo3  1  7.23026000  1.77742000  1.83120000  1
  Mo  Mo4  1  3.65041000  7.22075000  0.03062830  1
  Mo  Mo5  1  5.50653000  1.82155000  3.63603000  1
  Mo  Mo6  1  5.42722000  -0.04853760  1.80472000  1
  Mo  Mo7  1  3.62997000  1.85813000  1.80365000  1
  Mo  Mo8  1  7.34632000  3.55002000  3.62587000  1
  Mo  Mo9  1  1.70364000  5.44100000  0.02391830  1
  Mo  Mo10  1  1.82659000  3.72967000  1.83238000  1
  Mo  Mo11  1  -0.05671160  5.49603000  1.85896000  1
  Mo  Mo12  1  3.67551000  3.66918000  -0.05259630  1
  Mo  Mo13  1  5.48821000  5.43040000  3.55871000  1
  Mo  Mo14  1  5.47597000  3.65868000  1.88809000  1
  Mo  Mo15  1  3.60993000  5.45576000  1.78951000  1
