# generated using pymatgen
data_Mo
_symmetry_space_group_name_H-M   'P 1'
_cell_length_a   7.28100662
_cell_length_b   7.28100662
_cell_length_c   3.64050341
_cell_angle_alpha   90.00000000
_cell_angle_beta   90.00000000
_cell_angle_gamma   90.00000000
_symmetry_Int_Tables_number   1
_chemical_formula_structural   Mo
_chemical_formula_sum   Mo16
_cell_volume   192.99421606
_cell_formula_units_Z   16
loop_
 _symmetry_equiv_pos_site_id
 _symmetry_equiv_pos_as_xyz
  1  'x, y, z'
loop_
 _atom_site_type_symbol
 _atom_site_label
 _atom_site_symmetry_multiplicity
 _atom_site_fract_x
 _atom_site_fract_y
 _atom_site_fract_z
 _atom_site_occupancy
  Mo  Mo0  1  -0.06028130  7.23728000  -0.04435900  1
  Mo  Mo1  1  1.89383000  1.77815000  3.57630000  1
  Mo  Mo2  1  1.78658000  -0.05350040  1.86142000  1
  Mo  Mo3  1  7.36374000  1.77615000  1.87419000  1
  Mo  Mo4  1  3.62927000  7.23810000  -0.04872840  1
  Mo  Mo5  1  5.39793000  1.82138000  3.66082000  1
  Mo  Mo6  1  5.41970000  0.01825950  1.80321000  1
  Mo  Mo7  1  3.65994000  1.87626000  1.88658000  1
  Mo  Mo8  1  7.26289000  3.65578000  3.70005000  1
  Mo  Mo9  1  1.83753000  5.48503000  -0.02684460  1
  Mo  Mo10  1  1.76749000  3.55968000  1.73621000  1
  Mo  Mo11  1  -0.00078381  5.49383000  1.81533000  1
  Mo  Mo12  1  3.59245000  3.73803000  -0.01749510  1
  Mo  Mo13  1  5.47472000  5.47945000  3.64586000  1
  Mo  Mo14  1  5.53505000  3.68081000  1.85311000  1
  Mo  Mo15  1  3.66393000  5.43934000  1.83637000  1
