# generated using pymatgen
data_Mo
_symmetry_space_group_name_H-M   'P 1'
_cell_length_a   7.28100662
_cell_length_b   7.28100662
_cell_length_c   3.64050341
_cell_angle_alpha   90.00000000
_cell_angle_beta   90.00000000
_cell_angle_gamma   90.00000000
_symmetry_Int_Tables_number   1
_chemical_formula_structural   Mo
_chemical_formula_sum   Mo16
_cell_volume   192.99421606
_cell_formula_units_Z   16
loop_
 _symmetry_equiv_pos_site_id
 _symmetry_equiv_pos_as_xyz
  1  'x, y, z'
loop_
 _atom_site_type_symbol
 _atom_site_label
 _atom_site_symmetry_multiplicity
 _atom_site_fract_x
 _atom_site_fract_y
 _atom_site_fract_z
 _atom_site_occupancy
  Mo  Mo0  1  -0.08428040  7.27938000  0.03072510  1
  Mo  Mo1  1  1.79128000  1.78957000  3.65939000  1
  Mo  Mo2  1  1.81032000  -0.07745640  1.82777000  1
  Mo  Mo3  1  7.30340000  1.77289000  1.84699000  1
  Mo  Mo4  1  3.61721000  7.36966000  -0.00114978  1
  Mo  Mo5  1  5.53640000  1.88239000  3.70119000  1
  Mo  Mo6  1  5.38264000  0.00504499  1.78061000  1
  Mo  Mo7  1  3.68285000  1.84216000  1.76892000  1
  Mo  Mo8  1  7.30948000  3.64628000  3.65743000  1
  Mo  Mo9  1  1.79134000  5.44932000  -0.09447450  1
  Mo  Mo10  1  1.86078000  3.69805000  1.81011000  1
  Mo  Mo11  1  -0.00329820  5.37567000  1.82692000  1
  Mo  Mo12  1  3.62798000  3.62705000  0.00372531  1
  Mo  Mo13  1  5.47414000  5.43930000  3.62343000  1
  Mo  Mo14  1  5.47924000  3.66156000  1.88121000  1
  Mo  Mo15  1  3.64451000  5.46314000  1.78921000  1
