# generated using pymatgen
data_Mo
_symmetry_space_group_name_H-M   'P 1'
_cell_length_a   7.28100662
_cell_length_b   7.28100662
_cell_length_c   3.64050341
_cell_angle_alpha   90.00000000
_cell_angle_beta   90.00000000
_cell_angle_gamma   90.00000000
_symmetry_Int_Tables_number   1
_chemical_formula_structural   Mo
_chemical_formula_sum   Mo16
_cell_volume   192.99421606
_cell_formula_units_Z   16
loop_
 _symmetry_equiv_pos_site_id
 _symmetry_equiv_pos_as_xyz
  1  'x, y, z'
loop_
 _atom_site_type_symbol
 _atom_site_label
 _atom_site_symmetry_multiplicity
 _atom_site_fract_x
 _atom_site_fract_y
 _atom_site_fract_z
 _atom_site_occupancy
  Mo  Mo0  1  0.03729780  7.26848000  0.04875740  1
  Mo  Mo1  1  1.79457000  1.80765000  3.64990000  1
  Mo  Mo2  1  1.82997000  0.01928450  1.71335000  1
  Mo  Mo3  1  7.29692000  1.83057000  1.89001000  1
  Mo  Mo4  1  3.57258000  7.30300000  -0.02990620  1
  Mo  Mo5  1  5.50515000  1.80642000  3.63956000  1
  Mo  Mo6  1  5.41633000  -0.00484577  1.88045000  1
  Mo  Mo7  1  3.67877000  1.83090000  1.81931000  1
  Mo  Mo8  1  7.30903000  3.60579000  3.65398000  1
  Mo  Mo9  1  1.71919000  5.36580000  -0.05549430  1
  Mo  Mo10  1  1.91333000  3.63222000  1.80005000  1
  Mo  Mo11  1  -0.04210580  5.42768000  1.80676000  1
  Mo  Mo12  1  3.64594000  3.63056000  0.02506440  1
  Mo  Mo13  1  5.46835000  5.45061000  3.66714000  1
  Mo  Mo14  1  5.43330000  3.73681000  1.83269000  1
  Mo  Mo15  1  3.64539000  5.51308000  1.77038000  1
