# generated using pymatgen
data_Mo
_symmetry_space_group_name_H-M   'P 1'
_cell_length_a   7.28100662
_cell_length_b   7.28100662
_cell_length_c   3.64050341
_cell_angle_alpha   90.00000000
_cell_angle_beta   90.00000000
_cell_angle_gamma   90.00000000
_symmetry_Int_Tables_number   1
_chemical_formula_structural   Mo
_chemical_formula_sum   Mo16
_cell_volume   192.99421606
_cell_formula_units_Z   16
loop_
 _symmetry_equiv_pos_site_id
 _symmetry_equiv_pos_as_xyz
  1  'x, y, z'
loop_
 _atom_site_type_symbol
 _atom_site_label
 _atom_site_symmetry_multiplicity
 _atom_site_fract_x
 _atom_site_fract_y
 _atom_site_fract_z
 _atom_site_occupancy
  Mo  Mo0  1  0.00564394  7.18737000  0.01321030  1
  Mo  Mo1  1  1.79432000  1.85669000  3.59221000  1
  Mo  Mo2  1  1.76322000  0.06374750  1.83729000  1
  Mo  Mo3  1  7.24527000  1.82385000  1.78316000  1
  Mo  Mo4  1  3.58989000  7.29906000  0.05761660  1
  Mo  Mo5  1  5.37818000  1.77494000  3.51911000  1
  Mo  Mo6  1  5.52011000  -0.00476900  1.83277000  1
  Mo  Mo7  1  3.59555000  1.81008000  1.83738000  1
  Mo  Mo8  1  7.31188000  3.60968000  3.64294000  1
  Mo  Mo9  1  1.81601000  5.39283000  0.00297508  1
  Mo  Mo10  1  1.82254000  3.69691000  1.87146000  1
  Mo  Mo11  1  0.01650390  5.46271000  1.82848000  1
  Mo  Mo12  1  3.71567000  3.65481000  0.00426374  1
  Mo  Mo13  1  5.42595000  5.51421000  3.68637000  1
  Mo  Mo14  1  5.53355000  3.64335000  1.75986000  1
  Mo  Mo15  1  3.68970000  5.43853000  1.84291000  1
