# generated using pymatgen
data_Mo
_symmetry_space_group_name_H-M   'P 1'
_cell_length_a   7.28100662
_cell_length_b   7.28100662
_cell_length_c   3.64050341
_cell_angle_alpha   90.00000000
_cell_angle_beta   90.00000000
_cell_angle_gamma   90.00000000
_symmetry_Int_Tables_number   1
_chemical_formula_structural   Mo
_chemical_formula_sum   Mo16
_cell_volume   192.99421606
_cell_formula_units_Z   16
loop_
 _symmetry_equiv_pos_site_id
 _symmetry_equiv_pos_as_xyz
  1  'x, y, z'
loop_
 _atom_site_type_symbol
 _atom_site_label
 _atom_site_symmetry_multiplicity
 _atom_site_fract_x
 _atom_site_fract_y
 _atom_site_fract_z
 _atom_site_occupancy
  Mo  Mo0  1  -0.01702660  7.30176000  -0.01016940  1
  Mo  Mo1  1  1.81381000  1.81182000  3.62379000  1
  Mo  Mo2  1  1.88000000  -0.00900285  1.76025000  1
  Mo  Mo3  1  7.30956000  1.76443000  1.83682000  1
  Mo  Mo4  1  3.62741000  7.33200000  -0.00102701  1
  Mo  Mo5  1  5.46832000  1.85675000  3.63383000  1
  Mo  Mo6  1  5.40422000  -0.02022280  1.81805000  1
  Mo  Mo7  1  3.63455000  1.84081000  1.86629000  1
  Mo  Mo8  1  7.35131000  3.58631000  3.66822000  1
  Mo  Mo9  1  1.71554000  5.48800000  -0.08687550  1
  Mo  Mo10  1  1.81098000  3.65326000  1.86765000  1
  Mo  Mo11  1  -0.05043250  5.45169000  1.82327000  1
  Mo  Mo12  1  3.63555000  3.69100000  -0.00700531  1
  Mo  Mo13  1  5.47414000  5.43109000  3.70662000  1
  Mo  Mo14  1  5.47198000  3.65716000  1.80289000  1
  Mo  Mo15  1  3.69410000  5.38714000  1.80940000  1
