# generated using pymatgen
data_Mo
_symmetry_space_group_name_H-M   'P 1'
_cell_length_a   7.27808089
_cell_length_b   7.27808089
_cell_length_c   3.63904047
_cell_angle_alpha   90.00000000
_cell_angle_beta   90.00000000
_cell_angle_gamma   90.00000000
_symmetry_Int_Tables_number   1
_chemical_formula_structural   Mo
_chemical_formula_sum   Mo16
_cell_volume   192.76165285
_cell_formula_units_Z   16
loop_
 _symmetry_equiv_pos_site_id
 _symmetry_equiv_pos_as_xyz
  1  'x, y, z'
loop_
 _atom_site_type_symbol
 _atom_site_label
 _atom_site_symmetry_multiplicity
 _atom_site_fract_x
 _atom_site_fract_y
 _atom_site_fract_z
 _atom_site_occupancy
  Mo  Mo0  1  0.00283648  7.27643000  0.01480200  1
  Mo  Mo1  1  1.81165000  1.82067000  -0.00566842  1
  Mo  Mo2  1  1.81447000  7.28114000  1.80895000  1
  Mo  Mo3  1  7.28584000  1.81391000  1.82057000  1
  Mo  Mo4  1  3.64312000  7.26926000  3.64436000  1
  Mo  Mo5  1  5.46090000  1.82641000  0.00031816  1
  Mo  Mo6  1  5.43896000  0.00452585  1.82581000  1
  Mo  Mo7  1  3.63243000  1.81761000  1.81370000  1
  Mo  Mo8  1  7.26681000  3.62854000  3.63230000  1
  Mo  Mo9  1  1.82042000  5.45530000  3.64358000  1
  Mo  Mo10  1  1.83673000  3.63506000  1.82613000  1
  Mo  Mo11  1  7.28364000  5.45777000  1.82325000  1
  Mo  Mo12  1  3.63032000  3.63187000  -0.00300245  1
  Mo  Mo13  1  5.46886000  5.46834000  3.63323000  1
  Mo  Mo14  1  5.46639000  3.65483000  1.81956000  1
  Mo  Mo15  1  3.63870000  5.46041000  1.81413000  1
