# generated using pymatgen
data_Mo
_symmetry_space_group_name_H-M   'P 1'
_cell_length_a   7.28100662
_cell_length_b   7.28100662
_cell_length_c   3.64050341
_cell_angle_alpha   90.00000000
_cell_angle_beta   90.00000000
_cell_angle_gamma   90.00000000
_symmetry_Int_Tables_number   1
_chemical_formula_structural   Mo
_chemical_formula_sum   Mo16
_cell_volume   192.99421606
_cell_formula_units_Z   16
loop_
 _symmetry_equiv_pos_site_id
 _symmetry_equiv_pos_as_xyz
  1  'x, y, z'
loop_
 _atom_site_type_symbol
 _atom_site_label
 _atom_site_symmetry_multiplicity
 _atom_site_fract_x
 _atom_site_fract_y
 _atom_site_fract_z
 _atom_site_occupancy
  Mo  Mo0  1  0.04802850  7.24707000  -0.03130220  1
  Mo  Mo1  1  1.76758000  1.84091000  3.59631000  1
  Mo  Mo2  1  1.78165000  -0.03189500  1.84599000  1
  Mo  Mo3  1  7.25782000  1.85413000  1.86770000  1
  Mo  Mo4  1  3.57037000  7.28679000  0.00133270  1
  Mo  Mo5  1  5.53797000  1.75691000  3.62034000  1
  Mo  Mo6  1  5.45271000  -0.02692000  1.80176000  1
  Mo  Mo7  1  3.74107000  1.79973000  1.84722000  1
  Mo  Mo8  1  7.28189000  3.63762000  3.67411000  1
  Mo  Mo9  1  1.75147000  5.41309000  0.03290690  1
  Mo  Mo10  1  1.90036000  3.71137000  1.76735000  1
  Mo  Mo11  1  -0.00282624  5.44039000  1.84242000  1
  Mo  Mo12  1  3.61521000  3.64040000  -0.02415740  1
  Mo  Mo13  1  5.46416000  5.43415000  3.60354000  1
  Mo  Mo14  1  5.42231000  3.68837000  1.87162000  1
  Mo  Mo15  1  3.63424000  5.53189000  1.79486000  1
