# generated using pymatgen
data_Mo
_symmetry_space_group_name_H-M   'P 1'
_cell_length_a   7.28100662
_cell_length_b   7.28100662
_cell_length_c   3.64050341
_cell_angle_alpha   90.00000000
_cell_angle_beta   90.00000000
_cell_angle_gamma   90.00000000
_symmetry_Int_Tables_number   1
_chemical_formula_structural   Mo
_chemical_formula_sum   Mo16
_cell_volume   192.99421606
_cell_formula_units_Z   16
loop_
 _symmetry_equiv_pos_site_id
 _symmetry_equiv_pos_as_xyz
  1  'x, y, z'
loop_
 _atom_site_type_symbol
 _atom_site_label
 _atom_site_symmetry_multiplicity
 _atom_site_fract_x
 _atom_site_fract_y
 _atom_site_fract_z
 _atom_site_occupancy
  Mo  Mo0  1  0.04764830  7.24207000  0.01551790  1
  Mo  Mo1  1  1.88308000  1.84739000  3.64528000  1
  Mo  Mo2  1  1.86475000  0.02326480  1.75554000  1
  Mo  Mo3  1  7.29936000  1.81105000  1.89177000  1
  Mo  Mo4  1  3.64173000  7.27354000  0.01750210  1
  Mo  Mo5  1  5.45496000  1.80428000  3.66983000  1
  Mo  Mo6  1  5.50237000  0.00005740  1.83495000  1
  Mo  Mo7  1  3.61511000  1.84496000  1.84029000  1
  Mo  Mo8  1  7.26466000  3.64988000  3.66844000  1
  Mo  Mo9  1  1.79777000  5.40281000  -0.09883520  1
  Mo  Mo10  1  1.77204000  3.62071000  1.85142000  1
  Mo  Mo11  1  -0.05946290  5.52116000  1.77753000  1
  Mo  Mo12  1  3.63758000  3.59793000  0.01600470  1
  Mo  Mo13  1  5.37481000  5.51009000  3.65621000  1
  Mo  Mo14  1  5.50462000  3.65319000  1.82485000  1
  Mo  Mo15  1  3.62297000  5.42163000  1.74572000  1
