# generated using pymatgen
data_Mo
_symmetry_space_group_name_H-M   'P 1'
_cell_length_a   7.28100662
_cell_length_b   7.28100662
_cell_length_c   3.64050341
_cell_angle_alpha   90.00000000
_cell_angle_beta   90.00000000
_cell_angle_gamma   90.00000000
_symmetry_Int_Tables_number   1
_chemical_formula_structural   Mo
_chemical_formula_sum   Mo16
_cell_volume   192.99421606
_cell_formula_units_Z   16
loop_
 _symmetry_equiv_pos_site_id
 _symmetry_equiv_pos_as_xyz
  1  'x, y, z'
loop_
 _atom_site_type_symbol
 _atom_site_label
 _atom_site_symmetry_multiplicity
 _atom_site_fract_x
 _atom_site_fract_y
 _atom_site_fract_z
 _atom_site_occupancy
  Mo  Mo0  1  -0.00847447  7.27220000  0.04400160  1
  Mo  Mo1  1  1.82386000  1.82229000  3.60520000  1
  Mo  Mo2  1  1.75927000  0.05119780  1.86124000  1
  Mo  Mo3  1  7.29691000  1.90633000  1.88562000  1
  Mo  Mo4  1  3.59277000  7.29349000  -0.00176910  1
  Mo  Mo5  1  5.43080000  1.85268000  3.63963000  1
  Mo  Mo6  1  5.55546000  -0.00740999  1.78338000  1
  Mo  Mo7  1  3.65051000  1.72180000  1.84456000  1
  Mo  Mo8  1  7.26962000  3.65740000  3.64574000  1
  Mo  Mo9  1  1.86451000  5.42902000  0.05658220  1
  Mo  Mo10  1  1.83891000  3.62060000  1.77206000  1
  Mo  Mo11  1  -0.01555310  5.43617000  1.79006000  1
  Mo  Mo12  1  3.66012000  3.64628000  -0.02922640  1
  Mo  Mo13  1  5.39527000  5.46503000  3.62521000  1
  Mo  Mo14  1  5.45587000  3.63555000  1.79703000  1
  Mo  Mo15  1  3.65414000  5.42138000  1.79268000  1
