# generated using pymatgen
data_Mo
_symmetry_space_group_name_H-M   'P 1'
_cell_length_a   7.28100662
_cell_length_b   7.28100662
_cell_length_c   3.64050341
_cell_angle_alpha   90.00000000
_cell_angle_beta   90.00000000
_cell_angle_gamma   90.00000000
_symmetry_Int_Tables_number   1
_chemical_formula_structural   Mo
_chemical_formula_sum   Mo16
_cell_volume   192.99421606
_cell_formula_units_Z   16
loop_
 _symmetry_equiv_pos_site_id
 _symmetry_equiv_pos_as_xyz
  1  'x, y, z'
loop_
 _atom_site_type_symbol
 _atom_site_label
 _atom_site_symmetry_multiplicity
 _atom_site_fract_x
 _atom_site_fract_y
 _atom_site_fract_z
 _atom_site_occupancy
  Mo  Mo0  1  0.04730100  7.27067000  -0.04659540  1
  Mo  Mo1  1  1.77104000  1.84119000  3.64265000  1
  Mo  Mo2  1  1.79761000  -0.05146380  1.86236000  1
  Mo  Mo3  1  7.22106000  1.86113000  1.83522000  1
  Mo  Mo4  1  3.57876000  7.32722000  0.01279000  1
  Mo  Mo5  1  5.51405000  1.79412000  3.61636000  1
  Mo  Mo6  1  5.43037000  0.01135610  1.78259000  1
  Mo  Mo7  1  3.70370000  1.76289000  1.85688000  1
  Mo  Mo8  1  7.24123000  3.64747000  3.66605000  1
  Mo  Mo9  1  1.87429000  5.45024000  0.07949080  1
  Mo  Mo10  1  1.89812000  3.61331000  1.76452000  1
  Mo  Mo11  1  0.01386920  5.46614000  1.78156000  1
  Mo  Mo12  1  3.56426000  3.56529000  0.00150629  1
  Mo  Mo13  1  5.51237000  5.48413000  3.67165000  1
  Mo  Mo14  1  5.37659000  3.65400000  1.80510000  1
  Mo  Mo15  1  3.67937000  5.52632000  1.77987000  1
