# generated using pymatgen
data_Mo
_symmetry_space_group_name_H-M   'P 1'
_cell_length_a   7.28100662
_cell_length_b   7.28100662
_cell_length_c   3.64050341
_cell_angle_alpha   90.00000000
_cell_angle_beta   90.00000000
_cell_angle_gamma   90.00000000
_symmetry_Int_Tables_number   1
_chemical_formula_structural   Mo
_chemical_formula_sum   Mo16
_cell_volume   192.99421606
_cell_formula_units_Z   16
loop_
 _symmetry_equiv_pos_site_id
 _symmetry_equiv_pos_as_xyz
  1  'x, y, z'
loop_
 _atom_site_type_symbol
 _atom_site_label
 _atom_site_symmetry_multiplicity
 _atom_site_fract_x
 _atom_site_fract_y
 _atom_site_fract_z
 _atom_site_occupancy
  Mo  Mo0  1  0.06821490  7.24640000  0.00421794  1
  Mo  Mo1  1  1.84538000  1.91572000  3.71985000  1
  Mo  Mo2  1  1.78073000  0.00126930  1.79252000  1
  Mo  Mo3  1  7.30180000  1.80878000  1.82246000  1
  Mo  Mo4  1  3.61939000  7.29381000  -0.05778070  1
  Mo  Mo5  1  5.52131000  1.76936000  3.63555000  1
  Mo  Mo6  1  5.50179000  -0.00174765  1.82059000  1
  Mo  Mo7  1  3.60119000  1.80067000  1.86115000  1
  Mo  Mo8  1  7.25132000  3.55168000  3.65208000  1
  Mo  Mo9  1  1.80231000  5.41399000  -0.06459750  1
  Mo  Mo10  1  1.81394000  3.65967000  1.85155000  1
  Mo  Mo11  1  -0.01939480  5.44959000  1.82004000  1
  Mo  Mo12  1  3.63148000  3.61519000  0.04386850  1
  Mo  Mo13  1  5.44455000  5.48397000  3.60570000  1
  Mo  Mo14  1  5.41704000  3.68825000  1.85055000  1
  Mo  Mo15  1  3.64296000  5.52739000  1.75427000  1
