# generated using pymatgen
data_Mo
_symmetry_space_group_name_H-M   'P 1'
_cell_length_a   7.28100662
_cell_length_b   7.28100662
_cell_length_c   3.64050341
_cell_angle_alpha   90.00000000
_cell_angle_beta   90.00000000
_cell_angle_gamma   90.00000000
_symmetry_Int_Tables_number   1
_chemical_formula_structural   Mo
_chemical_formula_sum   Mo16
_cell_volume   192.99421606
_cell_formula_units_Z   16
loop_
 _symmetry_equiv_pos_site_id
 _symmetry_equiv_pos_as_xyz
  1  'x, y, z'
loop_
 _atom_site_type_symbol
 _atom_site_label
 _atom_site_symmetry_multiplicity
 _atom_site_fract_x
 _atom_site_fract_y
 _atom_site_fract_z
 _atom_site_occupancy
  Mo  Mo0  1  -0.00765045  7.32084000  -0.01505100  1
  Mo  Mo1  1  1.85230000  1.77297000  3.59818000  1
  Mo  Mo2  1  1.83771000  -0.01150650  1.79196000  1
  Mo  Mo3  1  7.31462000  1.81382000  1.80583000  1
  Mo  Mo4  1  3.67020000  7.24129000  -0.02975380  1
  Mo  Mo5  1  5.37942000  1.79019000  3.58245000  1
  Mo  Mo6  1  5.46350000  0.07938860  1.88245000  1
  Mo  Mo7  1  3.64170000  1.81909000  1.87849000  1
  Mo  Mo8  1  7.24448000  3.67257000  3.62470000  1
  Mo  Mo9  1  1.88480000  5.49386000  0.01440820  1
  Mo  Mo10  1  1.75076000  3.61603000  1.81514000  1
  Mo  Mo11  1  0.03935810  5.52018000  1.81832000  1
  Mo  Mo12  1  3.55365000  3.67335000  0.03841550  1
  Mo  Mo13  1  5.45111000  5.42444000  3.69834000  1
  Mo  Mo14  1  5.48638000  3.59844000  1.72858000  1
  Mo  Mo15  1  3.66167000  5.39905000  1.87954000  1
