# generated using pymatgen
data_Mo
_symmetry_space_group_name_H-M   'P 1'
_cell_length_a   7.28100662
_cell_length_b   7.28100662
_cell_length_c   3.64050341
_cell_angle_alpha   90.00000000
_cell_angle_beta   90.00000000
_cell_angle_gamma   90.00000000
_symmetry_Int_Tables_number   1
_chemical_formula_structural   Mo
_chemical_formula_sum   Mo16
_cell_volume   192.99421606
_cell_formula_units_Z   16
loop_
 _symmetry_equiv_pos_site_id
 _symmetry_equiv_pos_as_xyz
  1  'x, y, z'
loop_
 _atom_site_type_symbol
 _atom_site_label
 _atom_site_symmetry_multiplicity
 _atom_site_fract_x
 _atom_site_fract_y
 _atom_site_fract_z
 _atom_site_occupancy
  Mo  Mo0  1  0.01897950  7.24417000  -0.06868960  1
  Mo  Mo1  1  1.89026000  1.85939000  3.68441000  1
  Mo  Mo2  1  1.75190000  0.05361370  1.85333000  1
  Mo  Mo3  1  7.30718000  1.80016000  1.82875000  1
  Mo  Mo4  1  3.62001000  7.27012000  0.03053070  1
  Mo  Mo5  1  5.47681000  1.75275000  3.68862000  1
  Mo  Mo6  1  5.46293000  0.01236000  1.76013000  1
  Mo  Mo7  1  3.64989000  1.84125000  1.77839000  1
  Mo  Mo8  1  7.26840000  3.63174000  3.66893000  1
  Mo  Mo9  1  1.85208000  5.47340000  0.01463620  1
  Mo  Mo10  1  1.83602000  3.59837000  1.90405000  1
  Mo  Mo11  1  0.01525460  5.36257000  1.78211000  1
  Mo  Mo12  1  3.57035000  3.66229000  -0.00370358  1
  Mo  Mo13  1  5.44458000  5.47292000  3.60194000  1
  Mo  Mo14  1  5.41493000  3.67287000  1.83408000  1
  Mo  Mo15  1  3.64442000  5.51602000  1.75448000  1
