# generated using pymatgen
data_Mo
_symmetry_space_group_name_H-M   'P 1'
_cell_length_a   7.28100662
_cell_length_b   7.28100662
_cell_length_c   3.64050341
_cell_angle_alpha   90.00000000
_cell_angle_beta   90.00000000
_cell_angle_gamma   90.00000000
_symmetry_Int_Tables_number   1
_chemical_formula_structural   Mo
_chemical_formula_sum   Mo16
_cell_volume   192.99421606
_cell_formula_units_Z   16
loop_
 _symmetry_equiv_pos_site_id
 _symmetry_equiv_pos_as_xyz
  1  'x, y, z'
loop_
 _atom_site_type_symbol
 _atom_site_label
 _atom_site_symmetry_multiplicity
 _atom_site_fract_x
 _atom_site_fract_y
 _atom_site_fract_z
 _atom_site_occupancy
  Mo  Mo0  1  0.00522788  7.33351000  -0.05192020  1
  Mo  Mo1  1  1.79966000  1.80755000  3.66863000  1
  Mo  Mo2  1  1.75694000  0.01868630  1.86821000  1
  Mo  Mo3  1  7.27888000  1.82764000  1.77575000  1
  Mo  Mo4  1  3.69691000  7.24457000  -0.00072858  1
  Mo  Mo5  1  5.40451000  1.84027000  3.58568000  1
  Mo  Mo6  1  5.44458000  0.02990400  1.86372000  1
  Mo  Mo7  1  3.62408000  1.84665000  1.81336000  1
  Mo  Mo8  1  7.25982000  3.66521000  3.60299000  1
  Mo  Mo9  1  1.90987000  5.46403000  0.09025140  1
  Mo  Mo10  1  1.75027000  3.65194000  1.77797000  1
  Mo  Mo11  1  0.04286030  5.44289000  1.82817000  1
  Mo  Mo12  1  3.61505000  3.68562000  -0.02719260  1
  Mo  Mo13  1  5.49202000  5.36342000  3.65835000  1
  Mo  Mo14  1  5.47842000  3.57262000  1.80894000  1
  Mo  Mo15  1  3.66492000  5.42949000  1.84982000  1
