# generated using pymatgen
data_Mo
_symmetry_space_group_name_H-M   'P 1'
_cell_length_a   7.28100662
_cell_length_b   7.28100662
_cell_length_c   3.64050341
_cell_angle_alpha   90.00000000
_cell_angle_beta   90.00000000
_cell_angle_gamma   90.00000000
_symmetry_Int_Tables_number   1
_chemical_formula_structural   Mo
_chemical_formula_sum   Mo16
_cell_volume   192.99421606
_cell_formula_units_Z   16
loop_
 _symmetry_equiv_pos_site_id
 _symmetry_equiv_pos_as_xyz
  1  'x, y, z'
loop_
 _atom_site_type_symbol
 _atom_site_label
 _atom_site_symmetry_multiplicity
 _atom_site_fract_x
 _atom_site_fract_y
 _atom_site_fract_z
 _atom_site_occupancy
  Mo  Mo0  1  -0.00354724  7.30962000  -0.05472240  1
  Mo  Mo1  1  1.89353000  1.82495000  3.69665000  1
  Mo  Mo2  1  1.77668000  -0.06495490  1.81567000  1
  Mo  Mo3  1  7.26028000  1.76105000  1.84568000  1
  Mo  Mo4  1  3.70277000  7.29846000  -0.02949700  1
  Mo  Mo5  1  5.49585000  1.84557000  3.69067000  1
  Mo  Mo6  1  5.48226000  -0.01194210  1.80481000  1
  Mo  Mo7  1  3.64304000  1.83978000  1.84830000  1
  Mo  Mo8  1  7.28548000  3.68107000  3.58499000  1
  Mo  Mo9  1  1.83052000  5.51896000  -0.03724390  1
  Mo  Mo10  1  1.73439000  3.58755000  1.82844000  1
  Mo  Mo11  1  0.02701520  5.47245000  1.82353000  1
  Mo  Mo12  1  3.50695000  3.59526000  0.04264630  1
  Mo  Mo13  1  5.48460000  5.40195000  3.61950000  1
  Mo  Mo14  1  5.44741000  3.66673000  1.87106000  1
  Mo  Mo15  1  3.65677000  5.49749000  1.76152000  1
