# generated using pymatgen
data_Mo
_symmetry_space_group_name_H-M   'P 1'
_cell_length_a   7.27808089
_cell_length_b   7.27808089
_cell_length_c   3.63904047
_cell_angle_alpha   90.00000000
_cell_angle_beta   90.00000000
_cell_angle_gamma   90.00000000
_symmetry_Int_Tables_number   1
_chemical_formula_structural   Mo
_chemical_formula_sum   Mo16
_cell_volume   192.76165285
_cell_formula_units_Z   16
loop_
 _symmetry_equiv_pos_site_id
 _symmetry_equiv_pos_as_xyz
  1  'x, y, z'
loop_
 _atom_site_type_symbol
 _atom_site_label
 _atom_site_symmetry_multiplicity
 _atom_site_fract_x
 _atom_site_fract_y
 _atom_site_fract_z
 _atom_site_occupancy
  Mo  Mo0  1  -0.00239175  7.27947000  -0.00464989  1
  Mo  Mo1  1  1.81357000  1.81330000  0.01000110  1
  Mo  Mo2  1  1.83122000  7.25821000  1.83369000  1
  Mo  Mo3  1  7.26662000  1.82778000  1.82049000  1
  Mo  Mo4  1  3.63455000  7.28428000  3.63118000  1
  Mo  Mo5  1  5.46232000  1.82183000  0.00487828  1
  Mo  Mo6  1  5.45320000  -0.00436549  1.82295000  1
  Mo  Mo7  1  3.63546000  1.82877000  1.81392000  1
  Mo  Mo8  1  7.28362000  3.63824000  3.64829000  1
  Mo  Mo9  1  1.81208000  5.44655000  3.62951000  1
  Mo  Mo10  1  1.82335000  3.63525000  1.80695000  1
  Mo  Mo11  1  7.28565000  5.47108000  1.82458000  1
  Mo  Mo12  1  3.65393000  3.64442000  -0.00920335  1
  Mo  Mo13  1  5.46227000  5.45534000  3.64026000  1
  Mo  Mo14  1  5.45613000  3.64194000  1.81701000  1
  Mo  Mo15  1  3.63050000  5.45997000  1.82214000  1
