# generated using pymatgen
data_Mo
_symmetry_space_group_name_H-M   'P 1'
_cell_length_a   7.28100662
_cell_length_b   7.28100662
_cell_length_c   3.64050341
_cell_angle_alpha   90.00000000
_cell_angle_beta   90.00000000
_cell_angle_gamma   90.00000000
_symmetry_Int_Tables_number   1
_chemical_formula_structural   Mo
_chemical_formula_sum   Mo16
_cell_volume   192.99421606
_cell_formula_units_Z   16
loop_
 _symmetry_equiv_pos_site_id
 _symmetry_equiv_pos_as_xyz
  1  'x, y, z'
loop_
 _atom_site_type_symbol
 _atom_site_label
 _atom_site_symmetry_multiplicity
 _atom_site_fract_x
 _atom_site_fract_y
 _atom_site_fract_z
 _atom_site_occupancy
  Mo  Mo0  1  0.02203080  7.35186000  0.01444570  1
  Mo  Mo1  1  1.80276000  1.82202000  3.64948000  1
  Mo  Mo2  1  1.93918000  -0.00647478  1.86690000  1
  Mo  Mo3  1  7.23596000  1.81936000  1.75635000  1
  Mo  Mo4  1  3.69010000  7.28026000  0.05816470  1
  Mo  Mo5  1  5.44552000  1.86538000  3.60401000  1
  Mo  Mo6  1  5.42141000  -0.01268180  1.80295000  1
  Mo  Mo7  1  3.60104000  1.79543000  1.75866000  1
  Mo  Mo8  1  7.30469000  3.60859000  3.55716000  1
  Mo  Mo9  1  1.77930000  5.49925000  0.00423407  1
  Mo  Mo10  1  1.78732000  3.69992000  1.84913000  1
  Mo  Mo11  1  0.01590340  5.49664000  1.83646000  1
  Mo  Mo12  1  3.60736000  3.54676000  -0.00176351  1
  Mo  Mo13  1  5.51203000  5.44652000  3.63790000  1
  Mo  Mo14  1  5.41331000  3.58335000  1.85113000  1
  Mo  Mo15  1  3.64607000  5.42782000  1.86680000  1
