# generated using pymatgen
data_Mo
_symmetry_space_group_name_H-M   'P 1'
_cell_length_a   7.28100662
_cell_length_b   7.28100662
_cell_length_c   3.64050341
_cell_angle_alpha   90.00000000
_cell_angle_beta   90.00000000
_cell_angle_gamma   90.00000000
_symmetry_Int_Tables_number   1
_chemical_formula_structural   Mo
_chemical_formula_sum   Mo16
_cell_volume   192.99421606
_cell_formula_units_Z   16
loop_
 _symmetry_equiv_pos_site_id
 _symmetry_equiv_pos_as_xyz
  1  'x, y, z'
loop_
 _atom_site_type_symbol
 _atom_site_label
 _atom_site_symmetry_multiplicity
 _atom_site_fract_x
 _atom_site_fract_y
 _atom_site_fract_z
 _atom_site_occupancy
  Mo  Mo0  1  -0.02849690  7.29631000  0.03874150  1
  Mo  Mo1  1  1.76520000  1.86312000  3.53468000  1
  Mo  Mo2  1  1.89791000  -0.03247490  1.86590000  1
  Mo  Mo3  1  7.20507000  1.82115000  1.78965000  1
  Mo  Mo4  1  3.63858000  7.29930000  0.04554660  1
  Mo  Mo5  1  5.44349000  1.86174000  3.65055000  1
  Mo  Mo6  1  5.47137000  -0.00369265  1.73976000  1
  Mo  Mo7  1  3.60550000  1.85246000  1.80653000  1
  Mo  Mo8  1  7.32678000  3.57196000  3.60732000  1
  Mo  Mo9  1  1.77294000  5.48005000  0.02510690  1
  Mo  Mo10  1  1.82477000  3.72186000  1.81405000  1
  Mo  Mo11  1  0.02380680  5.44270000  1.82982000  1
  Mo  Mo12  1  3.60784000  3.64178000  0.02104230  1
  Mo  Mo13  1  5.52049000  5.41185000  3.63281000  1
  Mo  Mo14  1  5.45987000  3.60355000  1.82772000  1
  Mo  Mo15  1  3.68888000  5.39236000  1.88277000  1
