# generated using pymatgen
data_Mo
_symmetry_space_group_name_H-M   'P 1'
_cell_length_a   7.28100662
_cell_length_b   7.28100662
_cell_length_c   3.64050341
_cell_angle_alpha   90.00000000
_cell_angle_beta   90.00000000
_cell_angle_gamma   90.00000000
_symmetry_Int_Tables_number   1
_chemical_formula_structural   Mo
_chemical_formula_sum   Mo16
_cell_volume   192.99421606
_cell_formula_units_Z   16
loop_
 _symmetry_equiv_pos_site_id
 _symmetry_equiv_pos_as_xyz
  1  'x, y, z'
loop_
 _atom_site_type_symbol
 _atom_site_label
 _atom_site_symmetry_multiplicity
 _atom_site_fract_x
 _atom_site_fract_y
 _atom_site_fract_z
 _atom_site_occupancy
  Mo  Mo0  1  0.03146290  7.28483000  -0.04571980  1
  Mo  Mo1  1  1.83306000  1.81202000  3.66575000  1
  Mo  Mo2  1  1.90677000  -0.02056580  1.77272000  1
  Mo  Mo3  1  7.33452000  1.77773000  1.85671000  1
  Mo  Mo4  1  3.67145000  7.31341000  -0.03994300  1
  Mo  Mo5  1  5.47440000  1.78159000  3.72809000  1
  Mo  Mo6  1  5.40960000  0.02907910  1.83679000  1
  Mo  Mo7  1  3.69200000  1.82535000  1.85734000  1
  Mo  Mo8  1  7.23280000  3.66622000  3.66994000  1
  Mo  Mo9  1  1.79268000  5.42133000  -0.04078630  1
  Mo  Mo10  1  1.77105000  3.63981000  1.80061000  1
  Mo  Mo11  1  -0.00842357  5.48502000  1.75189000  1
  Mo  Mo12  1  3.59661000  3.61974000  0.00588583  1
  Mo  Mo13  1  5.47534000  5.51393000  3.59922000  1
  Mo  Mo14  1  5.39765000  3.65385000  1.87126000  1
  Mo  Mo15  1  3.61303000  5.42063000  1.82224000  1
