# generated using pymatgen
data_Mo
_symmetry_space_group_name_H-M   'P 1'
_cell_length_a   7.28100662
_cell_length_b   7.28100662
_cell_length_c   3.64050341
_cell_angle_alpha   90.00000000
_cell_angle_beta   90.00000000
_cell_angle_gamma   90.00000000
_symmetry_Int_Tables_number   1
_chemical_formula_structural   Mo
_chemical_formula_sum   Mo16
_cell_volume   192.99421606
_cell_formula_units_Z   16
loop_
 _symmetry_equiv_pos_site_id
 _symmetry_equiv_pos_as_xyz
  1  'x, y, z'
loop_
 _atom_site_type_symbol
 _atom_site_label
 _atom_site_symmetry_multiplicity
 _atom_site_fract_x
 _atom_site_fract_y
 _atom_site_fract_z
 _atom_site_occupancy
  Mo  Mo0  1  -0.01069090  7.24183000  0.01399110  1
  Mo  Mo1  1  1.82430000  1.79535000  3.58621000  1
  Mo  Mo2  1  1.85352000  0.00665528  1.78890000  1
  Mo  Mo3  1  7.30978000  1.84955000  1.82686000  1
  Mo  Mo4  1  3.59715000  7.30514000  -0.00982927  1
  Mo  Mo5  1  5.41285000  1.83341000  3.61724000  1
  Mo  Mo6  1  5.46036000  -0.00269101  1.86344000  1
  Mo  Mo7  1  3.67629000  1.84033000  1.85368000  1
  Mo  Mo8  1  7.27465000  3.65646000  3.63864000  1
  Mo  Mo9  1  1.78005000  5.44457000  -0.04855880  1
  Mo  Mo10  1  1.89912000  3.61905000  1.80888000  1
  Mo  Mo11  1  -0.04137940  5.42500000  1.85880000  1
  Mo  Mo12  1  3.70489000  3.66538000  -0.03772030  1
  Mo  Mo13  1  5.43925000  5.51042000  3.70651000  1
  Mo  Mo14  1  5.45847000  3.57622000  1.80189000  1
  Mo  Mo15  1  3.58540000  5.45734000  1.84306000  1
