# generated using pymatgen
data_Mo
_symmetry_space_group_name_H-M   'P 1'
_cell_length_a   7.28100662
_cell_length_b   7.28100662
_cell_length_c   3.64050341
_cell_angle_alpha   90.00000000
_cell_angle_beta   90.00000000
_cell_angle_gamma   90.00000000
_symmetry_Int_Tables_number   1
_chemical_formula_structural   Mo
_chemical_formula_sum   Mo16
_cell_volume   192.99421606
_cell_formula_units_Z   16
loop_
 _symmetry_equiv_pos_site_id
 _symmetry_equiv_pos_as_xyz
  1  'x, y, z'
loop_
 _atom_site_type_symbol
 _atom_site_label
 _atom_site_symmetry_multiplicity
 _atom_site_fract_x
 _atom_site_fract_y
 _atom_site_fract_z
 _atom_site_occupancy
  Mo  Mo0  1  -0.03391690  7.22840000  0.05079350  1
  Mo  Mo1  1  1.80274000  1.84903000  3.67643000  1
  Mo  Mo2  1  1.83694000  0.03673190  1.76237000  1
  Mo  Mo3  1  7.26446000  1.83113000  1.74343000  1
  Mo  Mo4  1  3.68119000  7.22775000  0.06106790  1
  Mo  Mo5  1  5.41729000  1.81081000  3.58760000  1
  Mo  Mo6  1  5.54145000  0.03116580  1.83183000  1
  Mo  Mo7  1  3.60375000  1.86945000  1.77506000  1
  Mo  Mo8  1  7.25357000  3.65904000  3.63089000  1
  Mo  Mo9  1  1.84356000  5.43053000  -0.03714310  1
  Mo  Mo10  1  1.77044000  3.70433000  1.84811000  1
  Mo  Mo11  1  0.04714370  5.45760000  1.85442000  1
  Mo  Mo12  1  3.67483000  3.61341000  0.03363660  1
  Mo  Mo13  1  5.38824000  5.44395000  3.62532000  1
  Mo  Mo14  1  5.52613000  3.57422000  1.78686000  1
  Mo  Mo15  1  3.60619000  5.45646000  1.88134000  1
