# generated using pymatgen
data_Mo
_symmetry_space_group_name_H-M   'P 1'
_cell_length_a   7.28100662
_cell_length_b   7.28100662
_cell_length_c   3.64050341
_cell_angle_alpha   90.00000000
_cell_angle_beta   90.00000000
_cell_angle_gamma   90.00000000
_symmetry_Int_Tables_number   1
_chemical_formula_structural   Mo
_chemical_formula_sum   Mo16
_cell_volume   192.99421606
_cell_formula_units_Z   16
loop_
 _symmetry_equiv_pos_site_id
 _symmetry_equiv_pos_as_xyz
  1  'x, y, z'
loop_
 _atom_site_type_symbol
 _atom_site_label
 _atom_site_symmetry_multiplicity
 _atom_site_fract_x
 _atom_site_fract_y
 _atom_site_fract_z
 _atom_site_occupancy
  Mo  Mo0  1  -0.07842140  7.27523000  0.04568800  1
  Mo  Mo1  1  1.71559000  1.77362000  3.58410000  1
  Mo  Mo2  1  1.87885000  0.04846710  1.88026000  1
  Mo  Mo3  1  7.24715000  1.87501000  1.79101000  1
  Mo  Mo4  1  3.66124000  7.23120000  0.02269320  1
  Mo  Mo5  1  5.39043000  1.83617000  3.58631000  1
  Mo  Mo6  1  5.45070000  -0.03844570  1.76904000  1
  Mo  Mo7  1  3.59488000  1.80839000  1.80655000  1
  Mo  Mo8  1  7.33101000  3.63719000  3.64074000  1
  Mo  Mo9  1  1.85635000  5.46581000  0.08510950  1
  Mo  Mo10  1  1.89813000  3.62705000  1.79383000  1
  Mo  Mo11  1  0.00048304  5.48665000  1.82816000  1
  Mo  Mo12  1  3.66713000  3.65844000  -0.01343450  1
  Mo  Mo13  1  5.48248000  5.51478000  3.63108000  1
  Mo  Mo14  1  5.47263000  3.61217000  1.76843000  1
  Mo  Mo15  1  3.65535000  5.41229000  1.89243000  1
