# generated using pymatgen
data_Mo
_symmetry_space_group_name_H-M   'P 1'
_cell_length_a   7.28100662
_cell_length_b   7.28100662
_cell_length_c   3.64050341
_cell_angle_alpha   90.00000000
_cell_angle_beta   90.00000000
_cell_angle_gamma   90.00000000
_symmetry_Int_Tables_number   1
_chemical_formula_structural   Mo
_chemical_formula_sum   Mo16
_cell_volume   192.99421606
_cell_formula_units_Z   16
loop_
 _symmetry_equiv_pos_site_id
 _symmetry_equiv_pos_as_xyz
  1  'x, y, z'
loop_
 _atom_site_type_symbol
 _atom_site_label
 _atom_site_symmetry_multiplicity
 _atom_site_fract_x
 _atom_site_fract_y
 _atom_site_fract_z
 _atom_site_occupancy
  Mo  Mo0  1  -0.01974900  7.12856000  -0.05247050  1
  Mo  Mo1  1  1.83995000  1.77050000  3.59939000  1
  Mo  Mo2  1  1.79186000  -0.02630780  1.80933000  1
  Mo  Mo3  1  7.27993000  1.82905000  1.86134000  1
  Mo  Mo4  1  3.65041000  7.28768000  -0.03372030  1
  Mo  Mo5  1  5.44899000  1.85835000  3.65999000  1
  Mo  Mo6  1  5.46832000  0.06246930  1.83381000  1
  Mo  Mo7  1  3.60897000  1.84379000  1.88047000  1
  Mo  Mo8  1  7.35576000  3.67463000  3.67518000  1
  Mo  Mo9  1  1.82328000  5.44714000  0.01728910  1
  Mo  Mo10  1  1.81119000  3.62424000  1.76736000  1
  Mo  Mo11  1  -0.05457700  5.45267000  1.79397000  1
  Mo  Mo12  1  3.68402000  3.66911000  -0.03756540  1
  Mo  Mo13  1  5.39854000  5.46456000  3.64179000  1
  Mo  Mo14  1  5.52324000  3.63914000  1.89590000  1
  Mo  Mo15  1  3.61388000  5.49842000  1.79994000  1
