# generated using pymatgen
data_Mo
_symmetry_space_group_name_H-M   'P 1'
_cell_length_a   7.28100662
_cell_length_b   7.28100662
_cell_length_c   3.64050341
_cell_angle_alpha   90.00000000
_cell_angle_beta   90.00000000
_cell_angle_gamma   90.00000000
_symmetry_Int_Tables_number   1
_chemical_formula_structural   Mo
_chemical_formula_sum   Mo16
_cell_volume   192.99421606
_cell_formula_units_Z   16
loop_
 _symmetry_equiv_pos_site_id
 _symmetry_equiv_pos_as_xyz
  1  'x, y, z'
loop_
 _atom_site_type_symbol
 _atom_site_label
 _atom_site_symmetry_multiplicity
 _atom_site_fract_x
 _atom_site_fract_y
 _atom_site_fract_z
 _atom_site_occupancy
  Mo  Mo0  1  -0.01857650  7.23912000  0.00741788  1
  Mo  Mo1  1  1.77817000  1.83996000  3.60744000  1
  Mo  Mo2  1  1.78482000  -0.00394600  1.85778000  1
  Mo  Mo3  1  7.22125000  1.83415000  1.74577000  1
  Mo  Mo4  1  3.63902000  7.31377000  0.04187440  1
  Mo  Mo5  1  5.47590000  1.78796000  3.65247000  1
  Mo  Mo6  1  5.47775000  -0.02381610  1.77495000  1
  Mo  Mo7  1  3.59774000  1.86389000  1.76976000  1
  Mo  Mo8  1  7.31857000  3.62749000  3.62154000  1
  Mo  Mo9  1  1.77876000  5.47127000  0.00777579  1
  Mo  Mo10  1  1.91067000  3.68146000  1.81525000  1
  Mo  Mo11  1  0.01101020  5.36285000  1.84023000  1
  Mo  Mo12  1  3.64043000  3.59379000  0.04087040  1
  Mo  Mo13  1  5.53309000  5.41360000  3.60052000  1
  Mo  Mo14  1  5.42962000  3.69019000  1.85487000  1
  Mo  Mo15  1  3.64578000  5.53226000  1.87347000  1
