# generated using pymatgen
data_Mo
_symmetry_space_group_name_H-M   'P 1'
_cell_length_a   7.28100662
_cell_length_b   7.28100662
_cell_length_c   3.64050341
_cell_angle_alpha   90.00000000
_cell_angle_beta   90.00000000
_cell_angle_gamma   90.00000000
_symmetry_Int_Tables_number   1
_chemical_formula_structural   Mo
_chemical_formula_sum   Mo16
_cell_volume   192.99421606
_cell_formula_units_Z   16
loop_
 _symmetry_equiv_pos_site_id
 _symmetry_equiv_pos_as_xyz
  1  'x, y, z'
loop_
 _atom_site_type_symbol
 _atom_site_label
 _atom_site_symmetry_multiplicity
 _atom_site_fract_x
 _atom_site_fract_y
 _atom_site_fract_z
 _atom_site_occupancy
  Mo  Mo0  1  0.02814920  7.33158000  -0.02155460  1
  Mo  Mo1  1  1.76225000  1.84648000  3.61758000  1
  Mo  Mo2  1  1.84126000  -0.07839740  1.89467000  1
  Mo  Mo3  1  7.32647000  1.82735000  1.78430000  1
  Mo  Mo4  1  3.64568000  7.30636000  0.04448350  1
  Mo  Mo5  1  5.49198000  1.78992000  3.62126000  1
  Mo  Mo6  1  5.45829000  -0.05322920  1.75240000  1
  Mo  Mo7  1  3.68108000  1.77030000  1.78615000  1
  Mo  Mo8  1  7.19427000  3.67664000  3.63136000  1
  Mo  Mo9  1  1.86803000  5.51085000  -0.01347390  1
  Mo  Mo10  1  1.82299000  3.68233000  1.77160000  1
  Mo  Mo11  1  0.05607170  5.47736000  1.85810000  1
  Mo  Mo12  1  3.54441000  3.55578000  0.01045170  1
  Mo  Mo13  1  5.45058000  5.47670000  3.65570000  1
  Mo  Mo14  1  5.38668000  3.62055000  1.81616000  1
  Mo  Mo15  1  3.66581000  5.48343000  1.90281000  1
