# generated using pymatgen
data_Mo
_symmetry_space_group_name_H-M   'P 1'
_cell_length_a   7.27808089
_cell_length_b   7.27808089
_cell_length_c   3.63904047
_cell_angle_alpha   90.00000000
_cell_angle_beta   90.00000000
_cell_angle_gamma   90.00000000
_symmetry_Int_Tables_number   1
_chemical_formula_structural   Mo
_chemical_formula_sum   Mo16
_cell_volume   192.76165285
_cell_formula_units_Z   16
loop_
 _symmetry_equiv_pos_site_id
 _symmetry_equiv_pos_as_xyz
  1  'x, y, z'
loop_
 _atom_site_type_symbol
 _atom_site_label
 _atom_site_symmetry_multiplicity
 _atom_site_fract_x
 _atom_site_fract_y
 _atom_site_fract_z
 _atom_site_occupancy
  Mo  Mo0  1  0.00402200  7.28508000  0.00526671  1
  Mo  Mo1  1  1.81258000  1.82256000  0.00147296  1
  Mo  Mo2  1  1.81404000  7.28559000  1.80935000  1
  Mo  Mo3  1  7.28402000  1.82202000  1.82391000  1
  Mo  Mo4  1  3.65768000  7.27191000  3.64021000  1
  Mo  Mo5  1  5.46982000  1.81511000  0.00269200  1
  Mo  Mo6  1  5.44868000  0.00322403  1.82078000  1
  Mo  Mo7  1  3.64610000  1.81378000  1.81986000  1
  Mo  Mo8  1  7.25951000  3.62495000  3.63012000  1
  Mo  Mo9  1  1.81137000  5.46416000  3.63900000  1
  Mo  Mo10  1  1.83281000  3.64975000  1.83272000  1
  Mo  Mo11  1  7.27173000  5.45760000  1.81489000  1
  Mo  Mo12  1  3.63244000  3.63098000  0.00274234  1
  Mo  Mo13  1  5.46093000  5.45062000  3.62699000  1
  Mo  Mo14  1  5.45950000  3.63694000  1.82525000  1
  Mo  Mo15  1  3.63686000  5.46781000  1.81674000  1
