# generated using pymatgen
data_Mo
_symmetry_space_group_name_H-M   'P 1'
_cell_length_a   7.28100662
_cell_length_b   7.28100662
_cell_length_c   3.64050341
_cell_angle_alpha   90.00000000
_cell_angle_beta   90.00000000
_cell_angle_gamma   90.00000000
_symmetry_Int_Tables_number   1
_chemical_formula_structural   Mo
_chemical_formula_sum   Mo16
_cell_volume   192.99421606
_cell_formula_units_Z   16
loop_
 _symmetry_equiv_pos_site_id
 _symmetry_equiv_pos_as_xyz
  1  'x, y, z'
loop_
 _atom_site_type_symbol
 _atom_site_label
 _atom_site_symmetry_multiplicity
 _atom_site_fract_x
 _atom_site_fract_y
 _atom_site_fract_z
 _atom_site_occupancy
  Mo  Mo0  1  0.06900250  7.27787000  -0.03357310  1
  Mo  Mo1  1  1.78443000  1.87605000  3.65055000  1
  Mo  Mo2  1  1.78380000  -0.01358900  1.85228000  1
  Mo  Mo3  1  7.21044000  1.85892000  1.83885000  1
  Mo  Mo4  1  3.59900000  7.26477000  0.00466604  1
  Mo  Mo5  1  5.44866000  1.79877000  3.61018000  1
  Mo  Mo6  1  5.49902000  -0.00121254  1.79885000  1
  Mo  Mo7  1  3.59124000  1.74137000  1.81740000  1
  Mo  Mo8  1  7.23619000  3.61370000  3.65803000  1
  Mo  Mo9  1  1.79915000  5.42242000  0.05028410  1
  Mo  Mo10  1  1.83169000  3.70040000  1.85253000  1
  Mo  Mo11  1  0.03906940  5.49355000  1.79510000  1
  Mo  Mo12  1  3.71742000  3.58972000  -0.01679080  1
  Mo  Mo13  1  5.51114000  5.45806000  3.54210000  1
  Mo  Mo14  1  5.44694000  3.66103000  1.82393000  1
  Mo  Mo15  1  3.65680000  5.48218000  1.86761000  1
