# generated using pymatgen
data_Mo
_symmetry_space_group_name_H-M   'P 1'
_cell_length_a   7.28100662
_cell_length_b   7.28100662
_cell_length_c   3.64050341
_cell_angle_alpha   90.00000000
_cell_angle_beta   90.00000000
_cell_angle_gamma   90.00000000
_symmetry_Int_Tables_number   1
_chemical_formula_structural   Mo
_chemical_formula_sum   Mo16
_cell_volume   192.99421606
_cell_formula_units_Z   16
loop_
 _symmetry_equiv_pos_site_id
 _symmetry_equiv_pos_as_xyz
  1  'x, y, z'
loop_
 _atom_site_type_symbol
 _atom_site_label
 _atom_site_symmetry_multiplicity
 _atom_site_fract_x
 _atom_site_fract_y
 _atom_site_fract_z
 _atom_site_occupancy
  Mo  Mo0  1  -0.01164410  7.30715000  0.05399210  1
  Mo  Mo1  1  1.77492000  1.81913000  3.64276000  1
  Mo  Mo2  1  1.90971000  -0.00298843  1.81999000  1
  Mo  Mo3  1  7.24302000  1.86170000  1.78060000  1
  Mo  Mo4  1  3.63622000  7.24963000  0.08286780  1
  Mo  Mo5  1  5.46021000  1.85700000  3.58025000  1
  Mo  Mo6  1  5.48473000  -0.01859680  1.81204000  1
  Mo  Mo7  1  3.57827000  1.80953000  1.81119000  1
  Mo  Mo8  1  7.30065000  3.58381000  3.63920000  1
  Mo  Mo9  1  1.76961000  5.50325000  -0.05528040  1
  Mo  Mo10  1  1.85623000  3.65826000  1.88570000  1
  Mo  Mo11  1  -0.01586180  5.47772000  1.85228000  1
  Mo  Mo12  1  3.62438000  3.58655000  -0.01924750  1
  Mo  Mo13  1  5.48161000  5.43848000  3.65479000  1
  Mo  Mo14  1  5.43787000  3.66499000  1.73086000  1
  Mo  Mo15  1  3.69407000  5.42840000  1.84001000  1
