# generated using pymatgen
data_Mo
_symmetry_space_group_name_H-M   'P 1'
_cell_length_a   7.28100662
_cell_length_b   7.28100662
_cell_length_c   3.64050341
_cell_angle_alpha   90.00000000
_cell_angle_beta   90.00000000
_cell_angle_gamma   90.00000000
_symmetry_Int_Tables_number   1
_chemical_formula_structural   Mo
_chemical_formula_sum   Mo16
_cell_volume   192.99421606
_cell_formula_units_Z   16
loop_
 _symmetry_equiv_pos_site_id
 _symmetry_equiv_pos_as_xyz
  1  'x, y, z'
loop_
 _atom_site_type_symbol
 _atom_site_label
 _atom_site_symmetry_multiplicity
 _atom_site_fract_x
 _atom_site_fract_y
 _atom_site_fract_z
 _atom_site_occupancy
  Mo  Mo0  1  -0.01022870  7.27325000  0.00764901  1
  Mo  Mo1  1  1.76927000  1.75597000  3.68127000  1
  Mo  Mo2  1  1.92100000  0.01356640  1.80259000  1
  Mo  Mo3  1  7.26761000  1.78564000  1.74920000  1
  Mo  Mo4  1  3.63919000  7.27135000  -0.01732520  1
  Mo  Mo5  1  5.44951000  1.83256000  3.60625000  1
  Mo  Mo6  1  5.39260000  0.01718500  1.81696000  1
  Mo  Mo7  1  3.62790000  1.84319000  1.85133000  1
  Mo  Mo8  1  7.24299000  3.58353000  3.65745000  1
  Mo  Mo9  1  1.86958000  5.48470000  0.00245528  1
  Mo  Mo10  1  1.80631000  3.65981000  1.83345000  1
  Mo  Mo11  1  0.01566510  5.49726000  1.79496000  1
  Mo  Mo12  1  3.64461000  3.66611000  0.03149050  1
  Mo  Mo13  1  5.48589000  5.46730000  3.65241000  1
  Mo  Mo14  1  5.44976000  3.64705000  1.80594000  1
  Mo  Mo15  1  3.65234000  5.42554000  1.83592000  1
