# generated using pymatgen
data_Mo
_symmetry_space_group_name_H-M   'P 1'
_cell_length_a   7.28100662
_cell_length_b   7.28100662
_cell_length_c   3.64050341
_cell_angle_alpha   90.00000000
_cell_angle_beta   90.00000000
_cell_angle_gamma   90.00000000
_symmetry_Int_Tables_number   1
_chemical_formula_structural   Mo
_chemical_formula_sum   Mo16
_cell_volume   192.99421606
_cell_formula_units_Z   16
loop_
 _symmetry_equiv_pos_site_id
 _symmetry_equiv_pos_as_xyz
  1  'x, y, z'
loop_
 _atom_site_type_symbol
 _atom_site_label
 _atom_site_symmetry_multiplicity
 _atom_site_fract_x
 _atom_site_fract_y
 _atom_site_fract_z
 _atom_site_occupancy
  Mo  Mo0  1  -0.11511000  7.21934000  0.04463450  1
  Mo  Mo1  1  1.77375000  1.80157000  3.58541000  1
  Mo  Mo2  1  1.86359000  0.04646140  1.88945000  1
  Mo  Mo3  1  7.25978000  1.82002000  1.76823000  1
  Mo  Mo4  1  3.65517000  7.27759000  0.01788680  1
  Mo  Mo5  1  5.41857000  1.84043000  3.58479000  1
  Mo  Mo6  1  5.39067000  -0.01808870  1.81632000  1
  Mo  Mo7  1  3.61354000  1.87019000  1.76962000  1
  Mo  Mo8  1  7.35487000  3.59868000  3.66576000  1
  Mo  Mo9  1  1.81712000  5.47328000  0.08674930  1
  Mo  Mo10  1  1.85826000  3.67985000  1.79823000  1
  Mo  Mo11  1  0.00448754  5.51788000  1.81702000  1
  Mo  Mo12  1  3.64067000  3.61508000  -0.04200980  1
  Mo  Mo13  1  5.52938000  5.45437000  3.62143000  1
  Mo  Mo14  1  5.50514000  3.63935000  1.79205000  1
  Mo  Mo15  1  3.65412000  5.38801000  1.89643000  1
