# generated using pymatgen
data_Mo
_symmetry_space_group_name_H-M   'P 1'
_cell_length_a   7.28100662
_cell_length_b   7.28100662
_cell_length_c   3.64050341
_cell_angle_alpha   90.00000000
_cell_angle_beta   90.00000000
_cell_angle_gamma   90.00000000
_symmetry_Int_Tables_number   1
_chemical_formula_structural   Mo
_chemical_formula_sum   Mo16
_cell_volume   192.99421606
_cell_formula_units_Z   16
loop_
 _symmetry_equiv_pos_site_id
 _symmetry_equiv_pos_as_xyz
  1  'x, y, z'
loop_
 _atom_site_type_symbol
 _atom_site_label
 _atom_site_symmetry_multiplicity
 _atom_site_fract_x
 _atom_site_fract_y
 _atom_site_fract_z
 _atom_site_occupancy
  Mo  Mo0  1  -0.03208910  7.28363000  -0.05504680  1
  Mo  Mo1  1  1.89462000  1.77583000  3.68852000  1
  Mo  Mo2  1  1.75618000  -0.04832410  1.76842000  1
  Mo  Mo3  1  7.30821000  1.81987000  1.87470000  1
  Mo  Mo4  1  3.64211000  7.25752000  -0.05866060  1
  Mo  Mo5  1  5.48262000  1.85341000  3.66240000  1
  Mo  Mo6  1  5.49008000  0.02128210  1.84975000  1
  Mo  Mo7  1  3.71584000  1.75665000  1.86172000  1
  Mo  Mo8  1  7.25867000  3.65950000  3.68196000  1
  Mo  Mo9  1  1.87939000  5.47896000  -0.00327241  1
  Mo  Mo10  1  1.81034000  3.59867000  1.78605000  1
  Mo  Mo11  1  -0.00385544  5.48063000  1.79109000  1
  Mo  Mo12  1  3.59387000  3.69197000  -0.01920630  1
  Mo  Mo13  1  5.42104000  5.49367000  3.67917000  1
  Mo  Mo14  1  5.45298000  3.58702000  1.85752000  1
  Mo  Mo15  1  3.55399000  5.51372000  1.74690000  1
