# generated using pymatgen
data_Mo
_symmetry_space_group_name_H-M   'P 1'
_cell_length_a   7.28100662
_cell_length_b   7.28100662
_cell_length_c   3.64050341
_cell_angle_alpha   90.00000000
_cell_angle_beta   90.00000000
_cell_angle_gamma   90.00000000
_symmetry_Int_Tables_number   1
_chemical_formula_structural   Mo
_chemical_formula_sum   Mo16
_cell_volume   192.99421606
_cell_formula_units_Z   16
loop_
 _symmetry_equiv_pos_site_id
 _symmetry_equiv_pos_as_xyz
  1  'x, y, z'
loop_
 _atom_site_type_symbol
 _atom_site_label
 _atom_site_symmetry_multiplicity
 _atom_site_fract_x
 _atom_site_fract_y
 _atom_site_fract_z
 _atom_site_occupancy
  Mo  Mo0  1  0.02838980  7.30467000  -0.05018200  1
  Mo  Mo1  1  1.78397000  1.86426000  3.68853000  1
  Mo  Mo2  1  1.79465000  -0.04204630  1.80601000  1
  Mo  Mo3  1  7.29973000  1.76754000  1.73903000  1
  Mo  Mo4  1  3.60457000  7.30650000  -0.01462560  1
  Mo  Mo5  1  5.50123000  1.75080000  3.66175000  1
  Mo  Mo6  1  5.39837000  -0.04533740  1.81458000  1
  Mo  Mo7  1  3.60235000  1.85105000  1.79827000  1
  Mo  Mo8  1  7.21803000  3.67276000  3.59812000  1
  Mo  Mo9  1  1.83901000  5.45582000  0.03459370  1
  Mo  Mo10  1  1.85016000  3.59304000  1.79411000  1
  Mo  Mo11  1  -0.00867063  5.41759000  1.84712000  1
  Mo  Mo12  1  3.67113000  3.65403000  0.02616620  1
  Mo  Mo13  1  5.55255000  5.47572000  3.66058000  1
  Mo  Mo14  1  5.40621000  3.66754000  1.84204000  1
  Mo  Mo15  1  3.68232000  5.53007000  1.86589000  1
