# generated using pymatgen
data_Mo
_symmetry_space_group_name_H-M   'P 1'
_cell_length_a   7.28100662
_cell_length_b   7.28100662
_cell_length_c   3.64050341
_cell_angle_alpha   90.00000000
_cell_angle_beta   90.00000000
_cell_angle_gamma   90.00000000
_symmetry_Int_Tables_number   1
_chemical_formula_structural   Mo
_chemical_formula_sum   Mo16
_cell_volume   192.99421606
_cell_formula_units_Z   16
loop_
 _symmetry_equiv_pos_site_id
 _symmetry_equiv_pos_as_xyz
  1  'x, y, z'
loop_
 _atom_site_type_symbol
 _atom_site_label
 _atom_site_symmetry_multiplicity
 _atom_site_fract_x
 _atom_site_fract_y
 _atom_site_fract_z
 _atom_site_occupancy
  Mo  Mo0  1  -0.00038010  7.31720000  0.01792320  1
  Mo  Mo1  1  1.74128000  1.85151000  3.67705000  1
  Mo  Mo2  1  1.79089000  -0.02338600  1.83253000  1
  Mo  Mo3  1  7.21065000  1.89623000  1.77298000  1
  Mo  Mo4  1  3.63844000  7.23624000  0.04286030  1
  Mo  Mo5  1  5.52205000  1.81661000  3.61450000  1
  Mo  Mo6  1  5.45613000  -0.00290617  1.86583000  1
  Mo  Mo7  1  3.61789000  1.83198000  1.74945000  1
  Mo  Mo8  1  7.27974000  3.64308000  3.62238000  1
  Mo  Mo9  1  1.84245000  5.46935000  -0.01725150  1
  Mo  Mo10  1  1.89852000  3.65146000  1.85833000  1
  Mo  Mo11  1  0.03188200  5.39096000  1.85972000  1
  Mo  Mo12  1  3.65711000  3.57433000  -0.03073710  1
  Mo  Mo13  1  5.49588000  5.41154000  3.62940000  1
  Mo  Mo14  1  5.41418000  3.65109000  1.76458000  1
  Mo  Mo15  1  3.62730000  5.50871000  1.85246000  1
