# generated using pymatgen
data_Mo
_symmetry_space_group_name_H-M   'P 1'
_cell_length_a   7.28100662
_cell_length_b   7.28100662
_cell_length_c   3.64050341
_cell_angle_alpha   90.00000000
_cell_angle_beta   90.00000000
_cell_angle_gamma   90.00000000
_symmetry_Int_Tables_number   1
_chemical_formula_structural   Mo
_chemical_formula_sum   Mo16
_cell_volume   192.99421606
_cell_formula_units_Z   16
loop_
 _symmetry_equiv_pos_site_id
 _symmetry_equiv_pos_as_xyz
  1  'x, y, z'
loop_
 _atom_site_type_symbol
 _atom_site_label
 _atom_site_symmetry_multiplicity
 _atom_site_fract_x
 _atom_site_fract_y
 _atom_site_fract_z
 _atom_site_occupancy
  Mo  Mo0  1  -0.00117622  7.26183000  0.03856110  1
  Mo  Mo1  1  1.83960000  1.75829000  3.70269000  1
  Mo  Mo2  1  1.88446000  -0.03537040  1.76016000  1
  Mo  Mo3  1  7.23792000  1.73249000  1.84530000  1
  Mo  Mo4  1  3.64814000  7.27296000  -0.00017541  1
  Mo  Mo5  1  5.47457000  1.87222000  3.66890000  1
  Mo  Mo6  1  5.39184000  -0.01923870  1.84420000  1
  Mo  Mo7  1  3.61942000  1.85094000  1.75715000  1
  Mo  Mo8  1  7.37531000  3.59813000  3.61805000  1
  Mo  Mo9  1  1.69264000  5.42005000  -0.06407610  1
  Mo  Mo10  1  1.82658000  3.72666000  1.83965000  1
  Mo  Mo11  1  -0.04632000  5.46521000  1.81041000  1
  Mo  Mo12  1  3.68753000  3.68154000  -0.00242280  1
  Mo  Mo13  1  5.49653000  5.46383000  3.64541000  1
  Mo  Mo14  1  5.49867000  3.70726000  1.88438000  1
  Mo  Mo15  1  3.59828000  5.46720000  1.76381000  1
