# generated using pymatgen
data_Mo
_symmetry_space_group_name_H-M   'P 1'
_cell_length_a   7.28100662
_cell_length_b   7.28100662
_cell_length_c   3.64050341
_cell_angle_alpha   90.00000000
_cell_angle_beta   90.00000000
_cell_angle_gamma   90.00000000
_symmetry_Int_Tables_number   1
_chemical_formula_structural   Mo
_chemical_formula_sum   Mo16
_cell_volume   192.99421606
_cell_formula_units_Z   16
loop_
 _symmetry_equiv_pos_site_id
 _symmetry_equiv_pos_as_xyz
  1  'x, y, z'
loop_
 _atom_site_type_symbol
 _atom_site_label
 _atom_site_symmetry_multiplicity
 _atom_site_fract_x
 _atom_site_fract_y
 _atom_site_fract_z
 _atom_site_occupancy
  Mo  Mo0  1  0.05116320  7.25754000  0.04410160  1
  Mo  Mo1  1  1.84148000  1.82507000  3.59487000  1
  Mo  Mo2  1  1.85750000  -0.00713556  1.77579000  1
  Mo  Mo3  1  7.26412000  1.85044000  1.84273000  1
  Mo  Mo4  1  3.62096000  7.36382000  0.01196750  1
  Mo  Mo5  1  5.45377000  1.82639000  3.68324000  1
  Mo  Mo6  1  5.51265000  -0.00391821  1.84368000  1
  Mo  Mo7  1  3.63781000  1.75746000  1.80305000  1
  Mo  Mo8  1  7.24345000  3.59640000  3.68657000  1
  Mo  Mo9  1  1.75266000  5.39898000  0.02630830  1
  Mo  Mo10  1  1.88637000  3.65298000  1.70896000  1
  Mo  Mo11  1  -0.04807890  5.45522000  1.80505000  1
  Mo  Mo12  1  3.72856000  3.62504000  -0.03291040  1
  Mo  Mo13  1  5.41844000  5.47958000  3.63858000  1
  Mo  Mo14  1  5.41118000  3.64163000  1.82409000  1
  Mo  Mo15  1  3.59196000  5.50450000  1.85591000  1
