# generated using pymatgen
data_Mo
_symmetry_space_group_name_H-M   'P 1'
_cell_length_a   7.27808089
_cell_length_b   7.27808089
_cell_length_c   3.63904047
_cell_angle_alpha   90.00000000
_cell_angle_beta   90.00000000
_cell_angle_gamma   90.00000000
_symmetry_Int_Tables_number   1
_chemical_formula_structural   Mo
_chemical_formula_sum   Mo16
_cell_volume   192.76165285
_cell_formula_units_Z   16
loop_
 _symmetry_equiv_pos_site_id
 _symmetry_equiv_pos_as_xyz
  1  'x, y, z'
loop_
 _atom_site_type_symbol
 _atom_site_label
 _atom_site_symmetry_multiplicity
 _atom_site_fract_x
 _atom_site_fract_y
 _atom_site_fract_z
 _atom_site_occupancy
  Mo  Mo0  1  0.00639547  7.27870000  0.00798999  1
  Mo  Mo1  1  1.82111000  1.82107000  0.00523819  1
  Mo  Mo2  1  1.80963000  7.27284000  1.80753000  1
  Mo  Mo3  1  7.28513000  1.81716000  1.83439000  1
  Mo  Mo4  1  3.64245000  7.26886000  3.63807000  1
  Mo  Mo5  1  5.46366000  1.82407000  0.00416931  1
  Mo  Mo6  1  5.44303000  0.00247601  1.82582000  1
  Mo  Mo7  1  3.64942000  1.82240000  1.82874000  1
  Mo  Mo8  1  7.26806000  3.64751000  3.63796000  1
  Mo  Mo9  1  1.81728000  5.46148000  3.63728000  1
  Mo  Mo10  1  1.82397000  3.63891000  1.82633000  1
  Mo  Mo11  1  7.28360000  5.45130000  1.82415000  1
  Mo  Mo12  1  3.63944000  3.64811000  -0.01225530  1
  Mo  Mo13  1  5.45900000  5.46166000  3.63174000  1
  Mo  Mo14  1  5.46169000  3.63544000  1.81369000  1
  Mo  Mo15  1  3.62822000  5.45009000  1.80115000  1
