# generated using pymatgen
data_Mo
_symmetry_space_group_name_H-M   'P 1'
_cell_length_a   7.28100662
_cell_length_b   7.28100662
_cell_length_c   3.64050341
_cell_angle_alpha   90.00000000
_cell_angle_beta   90.00000000
_cell_angle_gamma   90.00000000
_symmetry_Int_Tables_number   1
_chemical_formula_structural   Mo
_chemical_formula_sum   Mo16
_cell_volume   192.99421606
_cell_formula_units_Z   16
loop_
 _symmetry_equiv_pos_site_id
 _symmetry_equiv_pos_as_xyz
  1  'x, y, z'
loop_
 _atom_site_type_symbol
 _atom_site_label
 _atom_site_symmetry_multiplicity
 _atom_site_fract_x
 _atom_site_fract_y
 _atom_site_fract_z
 _atom_site_occupancy
  Mo  Mo0  1  -0.05148300  7.22231000  0.03378690  1
  Mo  Mo1  1  1.82146000  1.82176000  3.69221000  1
  Mo  Mo2  1  1.76189000  0.01003070  1.78145000  1
  Mo  Mo3  1  7.28627000  1.84287000  1.88195000  1
  Mo  Mo4  1  3.66809000  7.26463000  -0.07730420  1
  Mo  Mo5  1  5.45773000  1.83802000  3.62262000  1
  Mo  Mo6  1  5.47526000  0.05485400  1.83906000  1
  Mo  Mo7  1  3.63620000  1.88958000  1.86041000  1
  Mo  Mo8  1  7.33070000  3.61878000  3.66340000  1
  Mo  Mo9  1  1.84426000  5.47167000  0.01391600  1
  Mo  Mo10  1  1.80817000  3.61151000  1.82096000  1
  Mo  Mo11  1  -0.04715210  5.47281000  1.79012000  1
  Mo  Mo12  1  3.65962000  3.67786000  0.01517150  1
  Mo  Mo13  1  5.40264000  5.40267000  3.65534000  1
  Mo  Mo14  1  5.52868000  3.58235000  1.75412000  1
  Mo  Mo15  1  3.64166000  5.44229000  1.76477000  1
