# generated using pymatgen
data_Mo
_symmetry_space_group_name_H-M   'P 1'
_cell_length_a   7.28100662
_cell_length_b   7.28100662
_cell_length_c   3.64050341
_cell_angle_alpha   90.00000000
_cell_angle_beta   90.00000000
_cell_angle_gamma   90.00000000
_symmetry_Int_Tables_number   1
_chemical_formula_structural   Mo
_chemical_formula_sum   Mo16
_cell_volume   192.99421606
_cell_formula_units_Z   16
loop_
 _symmetry_equiv_pos_site_id
 _symmetry_equiv_pos_as_xyz
  1  'x, y, z'
loop_
 _atom_site_type_symbol
 _atom_site_label
 _atom_site_symmetry_multiplicity
 _atom_site_fract_x
 _atom_site_fract_y
 _atom_site_fract_z
 _atom_site_occupancy
  Mo  Mo0  1  0.07525620  7.30992000  -0.05710090  1
  Mo  Mo1  1  1.76977000  1.85385000  3.61596000  1
  Mo  Mo2  1  1.83358000  -0.05250130  1.86858000  1
  Mo  Mo3  1  7.30094000  1.84145000  1.79136000  1
  Mo  Mo4  1  3.66224000  7.29038000  -0.00015793  1
  Mo  Mo5  1  5.47333000  1.75398000  3.64975000  1
  Mo  Mo6  1  5.50220000  -0.08799020  1.77799000  1
  Mo  Mo7  1  3.64280000  1.78911000  1.81667000  1
  Mo  Mo8  1  7.23330000  3.61410000  3.66348000  1
  Mo  Mo9  1  1.83439000  5.46508000  0.02356470  1
  Mo  Mo10  1  1.83230000  3.65271000  1.76367000  1
  Mo  Mo11  1  0.02284790  5.50160000  1.82673000  1
  Mo  Mo12  1  3.62004000  3.61274000  -0.00296421  1
  Mo  Mo13  1  5.43199000  5.48677000  3.66108000  1
  Mo  Mo14  1  5.39416000  3.70534000  1.79164000  1
  Mo  Mo15  1  3.59484000  5.48747000  1.92175000  1
