# generated using pymatgen
data_Mo
_symmetry_space_group_name_H-M   'P 1'
_cell_length_a   7.28100662
_cell_length_b   7.28100662
_cell_length_c   3.64050341
_cell_angle_alpha   90.00000000
_cell_angle_beta   90.00000000
_cell_angle_gamma   90.00000000
_symmetry_Int_Tables_number   1
_chemical_formula_structural   Mo
_chemical_formula_sum   Mo16
_cell_volume   192.99421606
_cell_formula_units_Z   16
loop_
 _symmetry_equiv_pos_site_id
 _symmetry_equiv_pos_as_xyz
  1  'x, y, z'
loop_
 _atom_site_type_symbol
 _atom_site_label
 _atom_site_symmetry_multiplicity
 _atom_site_fract_x
 _atom_site_fract_y
 _atom_site_fract_z
 _atom_site_occupancy
  Mo  Mo0  1  0.02927960  7.27454000  0.02928900  1
  Mo  Mo1  1  1.80838000  1.84456000  3.71454000  1
  Mo  Mo2  1  1.86937000  0.00842252  1.77031000  1
  Mo  Mo3  1  7.29491000  1.80904000  1.84523000  1
  Mo  Mo4  1  3.63122000  7.35722000  -0.04237310  1
  Mo  Mo5  1  5.48085000  1.81197000  3.60046000  1
  Mo  Mo6  1  5.50898000  -0.04788820  1.79920000  1
  Mo  Mo7  1  3.64513000  1.80503000  1.89784000  1
  Mo  Mo8  1  7.29823000  3.53091000  3.69453000  1
  Mo  Mo9  1  1.78894000  5.40022000  -0.03183820  1
  Mo  Mo10  1  1.88690000  3.64547000  1.80972000  1
  Mo  Mo11  1  -0.03382860  5.41842000  1.82908000  1
  Mo  Mo12  1  3.67772000  3.70628000  -0.00232111  1
  Mo  Mo13  1  5.37926000  5.49265000  3.61308000  1
  Mo  Mo14  1  5.39920000  3.62370000  1.78914000  1
  Mo  Mo15  1  3.55948000  5.54347000  1.79612000  1
