# generated using pymatgen
data_Mo
_symmetry_space_group_name_H-M   'P 1'
_cell_length_a   7.28100662
_cell_length_b   7.28100662
_cell_length_c   3.64050341
_cell_angle_alpha   90.00000000
_cell_angle_beta   90.00000000
_cell_angle_gamma   90.00000000
_symmetry_Int_Tables_number   1
_chemical_formula_structural   Mo
_chemical_formula_sum   Mo16
_cell_volume   192.99421606
_cell_formula_units_Z   16
loop_
 _symmetry_equiv_pos_site_id
 _symmetry_equiv_pos_as_xyz
  1  'x, y, z'
loop_
 _atom_site_type_symbol
 _atom_site_label
 _atom_site_symmetry_multiplicity
 _atom_site_fract_x
 _atom_site_fract_y
 _atom_site_fract_z
 _atom_site_occupancy
  Mo  Mo0  1  0.00074883  7.28768000  -0.02243890  1
  Mo  Mo1  1  1.85583000  1.85358000  3.56495000  1
  Mo  Mo2  1  1.74241000  -0.00065329  1.83831000  1
  Mo  Mo3  1  7.31033000  1.85582000  1.79825000  1
  Mo  Mo4  1  3.59546000  7.23980000  0.05312170  1
  Mo  Mo5  1  5.44524000  1.76309000  3.64919000  1
  Mo  Mo6  1  5.46609000  0.02592140  1.88420000  1
  Mo  Mo7  1  3.68026000  1.81767000  1.77321000  1
  Mo  Mo8  1  7.20367000  3.70694000  3.60153000  1
  Mo  Mo9  1  1.84422000  5.42700000  -0.01549400  1
  Mo  Mo10  1  1.84052000  3.58505000  1.81264000  1
  Mo  Mo11  1  -0.02034590  5.40538000  1.84856000  1
  Mo  Mo12  1  3.65948000  3.61283000  -0.04612130  1
  Mo  Mo13  1  5.48324000  5.54187000  3.70606000  1
  Mo  Mo14  1  5.42574000  3.63508000  1.83393000  1
  Mo  Mo15  1  3.69111000  5.46694000  1.83210000  1
