# generated using pymatgen
data_Mo
_symmetry_space_group_name_H-M   'P 1'
_cell_length_a   7.28100662
_cell_length_b   7.28100662
_cell_length_c   3.64050341
_cell_angle_alpha   90.00000000
_cell_angle_beta   90.00000000
_cell_angle_gamma   90.00000000
_symmetry_Int_Tables_number   1
_chemical_formula_structural   Mo
_chemical_formula_sum   Mo16
_cell_volume   192.99421606
_cell_formula_units_Z   16
loop_
 _symmetry_equiv_pos_site_id
 _symmetry_equiv_pos_as_xyz
  1  'x, y, z'
loop_
 _atom_site_type_symbol
 _atom_site_label
 _atom_site_symmetry_multiplicity
 _atom_site_fract_x
 _atom_site_fract_y
 _atom_site_fract_z
 _atom_site_occupancy
  Mo  Mo0  1  0.00002962  7.26582000  0.02245350  1
  Mo  Mo1  1  1.79333000  1.76806000  3.63818000  1
  Mo  Mo2  1  1.84962000  0.07895970  1.87467000  1
  Mo  Mo3  1  7.30031000  1.77836000  1.76441000  1
  Mo  Mo4  1  3.69792000  7.20639000  0.06408530  1
  Mo  Mo5  1  5.37350000  1.79172000  3.61141000  1
  Mo  Mo6  1  5.49363000  0.00970466  1.77995000  1
  Mo  Mo7  1  3.56707000  1.84554000  1.77937000  1
  Mo  Mo8  1  7.24619000  3.67904000  3.63720000  1
  Mo  Mo9  1  1.85323000  5.45400000  0.03721570  1
  Mo  Mo10  1  1.74176000  3.67979000  1.78454000  1
  Mo  Mo11  1  0.05075090  5.51441000  1.86264000  1
  Mo  Mo12  1  3.65916000  3.63308000  -0.00582775  1
  Mo  Mo13  1  5.41656000  5.42401000  3.53748000  1
  Mo  Mo14  1  5.51310000  3.65633000  1.84874000  1
  Mo  Mo15  1  3.66783000  5.43879000  1.87548000  1
