# generated using pymatgen
data_Mo
_symmetry_space_group_name_H-M   'P 1'
_cell_length_a   7.28100662
_cell_length_b   7.28100662
_cell_length_c   3.64050341
_cell_angle_alpha   90.00000000
_cell_angle_beta   90.00000000
_cell_angle_gamma   90.00000000
_symmetry_Int_Tables_number   1
_chemical_formula_structural   Mo
_chemical_formula_sum   Mo16
_cell_volume   192.99421606
_cell_formula_units_Z   16
loop_
 _symmetry_equiv_pos_site_id
 _symmetry_equiv_pos_as_xyz
  1  'x, y, z'
loop_
 _atom_site_type_symbol
 _atom_site_label
 _atom_site_symmetry_multiplicity
 _atom_site_fract_x
 _atom_site_fract_y
 _atom_site_fract_z
 _atom_site_occupancy
  Mo  Mo0  1  0.04589100  7.27859000  0.00311148  1
  Mo  Mo1  1  1.80254000  1.81700000  3.60105000  1
  Mo  Mo2  1  1.84464000  0.01824740  1.80577000  1
  Mo  Mo3  1  7.35932000  1.82166000  1.88011000  1
  Mo  Mo4  1  3.61339000  7.30662000  -0.04509570  1
  Mo  Mo5  1  5.48164000  1.77800000  3.70612000  1
  Mo  Mo6  1  5.50909000  0.00201618  1.79838000  1
  Mo  Mo7  1  3.67883000  1.83742000  1.85812000  1
  Mo  Mo8  1  7.24695000  3.62942000  3.63843000  1
  Mo  Mo9  1  1.78574000  5.41468000  -0.04405180  1
  Mo  Mo10  1  1.83052000  3.61974000  1.80590000  1
  Mo  Mo11  1  -0.03623550  5.37519000  1.80009000  1
  Mo  Mo12  1  3.65448000  3.74188000  0.00723498  1
  Mo  Mo13  1  5.40735000  5.52653000  3.63510000  1
  Mo  Mo14  1  5.43251000  3.57021000  1.85537000  1
  Mo  Mo15  1  3.56733000  5.48680000  1.80637000  1
