# generated using pymatgen
data_Mo
_symmetry_space_group_name_H-M   'P 1'
_cell_length_a   7.28100662
_cell_length_b   7.28100662
_cell_length_c   3.64050341
_cell_angle_alpha   90.00000000
_cell_angle_beta   90.00000000
_cell_angle_gamma   90.00000000
_symmetry_Int_Tables_number   1
_chemical_formula_structural   Mo
_chemical_formula_sum   Mo16
_cell_volume   192.99421606
_cell_formula_units_Z   16
loop_
 _symmetry_equiv_pos_site_id
 _symmetry_equiv_pos_as_xyz
  1  'x, y, z'
loop_
 _atom_site_type_symbol
 _atom_site_label
 _atom_site_symmetry_multiplicity
 _atom_site_fract_x
 _atom_site_fract_y
 _atom_site_fract_z
 _atom_site_occupancy
  Mo  Mo0  1  0.01634490  7.32192000  0.00383643  1
  Mo  Mo1  1  1.80752000  1.76730000  3.62941000  1
  Mo  Mo2  1  1.89956000  -0.03363730  1.76947000  1
  Mo  Mo3  1  7.25347000  1.75299000  1.75667000  1
  Mo  Mo4  1  3.66855000  7.24093000  0.06211500  1
  Mo  Mo5  1  5.46758000  1.88496000  3.70073000  1
  Mo  Mo6  1  5.41991000  -0.02868410  1.83248000  1
  Mo  Mo7  1  3.56901000  1.84363000  1.75604000  1
  Mo  Mo8  1  7.34745000  3.58862000  3.61604000  1
  Mo  Mo9  1  1.77806000  5.45049000  0.00534609  1
  Mo  Mo10  1  1.83056000  3.67327000  1.83527000  1
  Mo  Mo11  1  -0.03676610  5.52615000  1.82623000  1
  Mo  Mo12  1  3.64043000  3.62364000  -0.00105157  1
  Mo  Mo13  1  5.48123000  5.49577000  3.64300000  1
  Mo  Mo14  1  5.43250000  3.68368000  1.88026000  1
  Mo  Mo15  1  3.64860000  5.43297000  1.79616000  1
