# generated using pymatgen
data_Mo
_symmetry_space_group_name_H-M   'P 1'
_cell_length_a   7.28100662
_cell_length_b   7.28100662
_cell_length_c   3.64050341
_cell_angle_alpha   90.00000000
_cell_angle_beta   90.00000000
_cell_angle_gamma   90.00000000
_symmetry_Int_Tables_number   1
_chemical_formula_structural   Mo
_chemical_formula_sum   Mo16
_cell_volume   192.99421606
_cell_formula_units_Z   16
loop_
 _symmetry_equiv_pos_site_id
 _symmetry_equiv_pos_as_xyz
  1  'x, y, z'
loop_
 _atom_site_type_symbol
 _atom_site_label
 _atom_site_symmetry_multiplicity
 _atom_site_fract_x
 _atom_site_fract_y
 _atom_site_fract_z
 _atom_site_occupancy
  Mo  Mo0  1  0.05889000  7.34506000  -0.06567990  1
  Mo  Mo1  1  1.82027000  1.81457000  3.69392000  1
  Mo  Mo2  1  1.82626000  -0.07617090  1.75398000  1
  Mo  Mo3  1  7.29199000  1.79645000  1.81853000  1
  Mo  Mo4  1  3.66591000  7.30034000  -0.02295120  1
  Mo  Mo5  1  5.52933000  1.74916000  3.70956000  1
  Mo  Mo6  1  5.42426000  0.03818440  1.85439000  1
  Mo  Mo7  1  3.69170000  1.79130000  1.80478000  1
  Mo  Mo8  1  7.21220000  3.68948000  3.65130000  1
  Mo  Mo9  1  1.81413000  5.44430000  -0.05304360  1
  Mo  Mo10  1  1.84417000  3.62310000  1.83416000  1
  Mo  Mo11  1  0.00559332  5.42209000  1.81699000  1
  Mo  Mo12  1  3.63915000  3.62289000  0.00205786  1
  Mo  Mo13  1  5.46352000  5.47481000  3.63180000  1
  Mo  Mo14  1  5.34455000  3.64572000  1.85951000  1
  Mo  Mo15  1  3.59208000  5.54272000  1.82271000  1
