# generated using pymatgen
data_Mo
_symmetry_space_group_name_H-M   'P 1'
_cell_length_a   7.28100662
_cell_length_b   7.28100662
_cell_length_c   3.64050341
_cell_angle_alpha   90.00000000
_cell_angle_beta   90.00000000
_cell_angle_gamma   90.00000000
_symmetry_Int_Tables_number   1
_chemical_formula_structural   Mo
_chemical_formula_sum   Mo16
_cell_volume   192.99421606
_cell_formula_units_Z   16
loop_
 _symmetry_equiv_pos_site_id
 _symmetry_equiv_pos_as_xyz
  1  'x, y, z'
loop_
 _atom_site_type_symbol
 _atom_site_label
 _atom_site_symmetry_multiplicity
 _atom_site_fract_x
 _atom_site_fract_y
 _atom_site_fract_z
 _atom_site_occupancy
  Mo  Mo0  1  -0.01854280  7.22853000  0.02268040  1
  Mo  Mo1  1  1.72358000  1.70324000  3.67569000  1
  Mo  Mo2  1  1.90316000  0.05122600  1.79731000  1
  Mo  Mo3  1  7.24200000  1.85122000  1.78265000  1
  Mo  Mo4  1  3.68627000  7.27960000  0.01354190  1
  Mo  Mo5  1  5.39705000  1.86561000  3.58845000  1
  Mo  Mo6  1  5.50660000  0.00978371  1.79295000  1
  Mo  Mo7  1  3.63084000  1.79904000  1.88216000  1
  Mo  Mo8  1  7.30713000  3.64471000  3.68764000  1
  Mo  Mo9  1  1.80019000  5.50425000  -0.01191370  1
  Mo  Mo10  1  1.82289000  3.68347000  1.85528000  1
  Mo  Mo11  1  0.03197960  5.48566000  1.78186000  1
  Mo  Mo12  1  3.63493000  3.65038000  0.02460410  1
  Mo  Mo13  1  5.50255000  5.45362000  3.63698000  1
  Mo  Mo14  1  5.45357000  3.60212000  1.76233000  1
  Mo  Mo15  1  3.59980000  5.41153000  1.81980000  1
