# generated using pymatgen
data_Mo
_symmetry_space_group_name_H-M   'P 1'
_cell_length_a   7.28100662
_cell_length_b   7.28100662
_cell_length_c   3.64050341
_cell_angle_alpha   90.00000000
_cell_angle_beta   90.00000000
_cell_angle_gamma   90.00000000
_symmetry_Int_Tables_number   1
_chemical_formula_structural   Mo
_chemical_formula_sum   Mo16
_cell_volume   192.99421606
_cell_formula_units_Z   16
loop_
 _symmetry_equiv_pos_site_id
 _symmetry_equiv_pos_as_xyz
  1  'x, y, z'
loop_
 _atom_site_type_symbol
 _atom_site_label
 _atom_site_symmetry_multiplicity
 _atom_site_fract_x
 _atom_site_fract_y
 _atom_site_fract_z
 _atom_site_occupancy
  Mo  Mo0  1  0.00793528  7.21027000  0.06389510  1
  Mo  Mo1  1  1.77408000  1.85464000  3.71369000  1
  Mo  Mo2  1  1.76659000  0.09605370  1.82528000  1
  Mo  Mo3  1  7.22182000  1.87034000  1.86249000  1
  Mo  Mo4  1  3.63636000  7.26250000  0.00317771  1
  Mo  Mo5  1  5.47688000  1.81913000  3.59147000  1
  Mo  Mo6  1  5.51027000  0.03384090  1.80878000  1
  Mo  Mo7  1  3.59344000  1.80629000  1.79858000  1
  Mo  Mo8  1  7.32961000  3.64553000  3.64019000  1
  Mo  Mo9  1  1.85702000  5.42271000  0.00451654  1
  Mo  Mo10  1  1.85108000  3.58574000  1.82675000  1
  Mo  Mo11  1  -0.03782220  5.44745000  1.76545000  1
  Mo  Mo12  1  3.73172000  3.62370000  -0.00981343  1
  Mo  Mo13  1  5.41137000  5.48226000  3.63849000  1
  Mo  Mo14  1  5.44250000  3.59342000  1.85428000  1
  Mo  Mo15  1  3.65114000  5.47013000  1.72479000  1
