# generated using pymatgen
data_Mo
_symmetry_space_group_name_H-M   'P 1'
_cell_length_a   7.27808089
_cell_length_b   7.27808089
_cell_length_c   3.63904047
_cell_angle_alpha   90.00000000
_cell_angle_beta   90.00000000
_cell_angle_gamma   90.00000000
_symmetry_Int_Tables_number   1
_chemical_formula_structural   Mo
_chemical_formula_sum   Mo16
_cell_volume   192.76165285
_cell_formula_units_Z   16
loop_
 _symmetry_equiv_pos_site_id
 _symmetry_equiv_pos_as_xyz
  1  'x, y, z'
loop_
 _atom_site_type_symbol
 _atom_site_label
 _atom_site_symmetry_multiplicity
 _atom_site_fract_x
 _atom_site_fract_y
 _atom_site_fract_z
 _atom_site_occupancy
  Mo  Mo0  1  0.00882533  7.27913000  0.01245010  1
  Mo  Mo1  1  1.82838000  1.81300000  0.00977402  1
  Mo  Mo2  1  1.81231000  7.28406000  1.82249000  1
  Mo  Mo3  1  7.27370000  1.82245000  1.83475000  1
  Mo  Mo4  1  3.64480000  7.28262000  3.63251000  1
  Mo  Mo5  1  5.45256000  1.80899000  0.00812225  1
  Mo  Mo6  1  5.45660000  0.00045732  1.81729000  1
  Mo  Mo7  1  3.64318000  1.82881000  1.81433000  1
  Mo  Mo8  1  7.27555000  3.64267000  3.63571000  1
  Mo  Mo9  1  1.81724000  5.45203000  3.63638000  1
  Mo  Mo10  1  1.82171000  3.62567000  1.81530000  1
  Mo  Mo11  1  7.26357000  5.47215000  1.81409000  1
  Mo  Mo12  1  3.63653000  3.63362000  -0.00548052  1
  Mo  Mo13  1  5.45237000  5.45604000  3.63096000  1
  Mo  Mo14  1  5.48166000  3.63548000  1.82526000  1
  Mo  Mo15  1  3.63311000  5.46489000  1.80806000  1
