# generated using pymatgen
data_Mo
_symmetry_space_group_name_H-M   'P 1'
_cell_length_a   7.28100662
_cell_length_b   7.28100662
_cell_length_c   3.64050341
_cell_angle_alpha   90.00000000
_cell_angle_beta   90.00000000
_cell_angle_gamma   90.00000000
_symmetry_Int_Tables_number   1
_chemical_formula_structural   Mo
_chemical_formula_sum   Mo16
_cell_volume   192.99421606
_cell_formula_units_Z   16
loop_
 _symmetry_equiv_pos_site_id
 _symmetry_equiv_pos_as_xyz
  1  'x, y, z'
loop_
 _atom_site_type_symbol
 _atom_site_label
 _atom_site_symmetry_multiplicity
 _atom_site_fract_x
 _atom_site_fract_y
 _atom_site_fract_z
 _atom_site_occupancy
  Mo  Mo0  1  0.04480010  7.31122000  -0.02562170  1
  Mo  Mo1  1  1.75546000  1.87092000  3.59382000  1
  Mo  Mo2  1  1.87210000  -0.07046400  1.88285000  1
  Mo  Mo3  1  7.22037000  1.81205000  1.80424000  1
  Mo  Mo4  1  3.62601000  7.30803000  -0.03613440  1
  Mo  Mo5  1  5.52209000  1.80976000  3.61119000  1
  Mo  Mo6  1  5.40171000  -0.05187750  1.81252000  1
  Mo  Mo7  1  3.64172000  1.81534000  1.84105000  1
  Mo  Mo8  1  7.26877000  3.64164000  3.56881000  1
  Mo  Mo9  1  1.86766000  5.51328000  0.10302500  1
  Mo  Mo10  1  1.79040000  3.67013000  1.84128000  1
  Mo  Mo11  1  -0.00737812  5.48565000  1.80104000  1
  Mo  Mo12  1  3.57475000  3.65661000  0.01083300  1
  Mo  Mo13  1  5.53752000  5.43793000  3.69688000  1
  Mo  Mo14  1  5.41881000  3.61311000  1.76163000  1
  Mo  Mo15  1  3.68919000  5.40066000  1.84458000  1
