# generated using pymatgen
data_Mo
_symmetry_space_group_name_H-M   'P 1'
_cell_length_a   7.28420541
_cell_length_b   7.28420541
_cell_length_c   3.64210272
_cell_angle_alpha   90.00000000
_cell_angle_beta   90.00000000
_cell_angle_gamma   90.00000000
_symmetry_Int_Tables_number   1
_chemical_formula_structural   Mo
_chemical_formula_sum   Mo16
_cell_volume   193.24869004
_cell_formula_units_Z   16
loop_
 _symmetry_equiv_pos_site_id
 _symmetry_equiv_pos_as_xyz
  1  'x, y, z'
loop_
 _atom_site_type_symbol
 _atom_site_label
 _atom_site_symmetry_multiplicity
 _atom_site_fract_x
 _atom_site_fract_y
 _atom_site_fract_z
 _atom_site_occupancy
  Mo  Mo0  1  -0.04098210  0.06793580  -0.01516110  1
  Mo  Mo1  1  1.77074000  1.79320000  0.08600470  1
  Mo  Mo2  1  1.82989000  0.02109270  1.80426000  1
  Mo  Mo3  1  7.31127000  1.88376000  1.84709000  1
  Mo  Mo4  1  3.57697000  -0.00925112  3.56936000  1
  Mo  Mo5  1  5.46662000  1.77655000  3.64621000  1
  Mo  Mo6  1  5.45272000  0.02826900  1.80030000  1
  Mo  Mo7  1  3.60448000  1.80151000  1.81379000  1
  Mo  Mo8  1  0.05680190  3.64385000  3.64017000  1
  Mo  Mo9  1  1.81225000  5.48987000  3.63085000  1
  Mo  Mo10  1  1.83996000  3.65166000  1.83406000  1
  Mo  Mo11  1  -0.04752080  5.50400000  1.72495000  1
  Mo  Mo12  1  3.62996000  3.60641000  3.66930000  1
  Mo  Mo13  1  5.45068000  5.43920000  0.02830320  1
  Mo  Mo14  1  5.51241000  3.57728000  1.82145000  1
  Mo  Mo15  1  3.71354000  5.38024000  1.85316000  1
