# generated using pymatgen
data_Mo
_symmetry_space_group_name_H-M   'P 1'
_cell_length_a   7.28420541
_cell_length_b   7.28420541
_cell_length_c   3.64210272
_cell_angle_alpha   90.00000000
_cell_angle_beta   90.00000000
_cell_angle_gamma   90.00000000
_symmetry_Int_Tables_number   1
_chemical_formula_structural   Mo
_chemical_formula_sum   Mo16
_cell_volume   193.24869004
_cell_formula_units_Z   16
loop_
 _symmetry_equiv_pos_site_id
 _symmetry_equiv_pos_as_xyz
  1  'x, y, z'
loop_
 _atom_site_type_symbol
 _atom_site_label
 _atom_site_symmetry_multiplicity
 _atom_site_fract_x
 _atom_site_fract_y
 _atom_site_fract_z
 _atom_site_occupancy
  Mo  Mo0  1  0.03619990  0.00598011  0.03869180  1
  Mo  Mo1  1  1.81237000  1.75287000  -0.04390550  1
  Mo  Mo2  1  1.78425000  -0.02913320  1.83716000  1
  Mo  Mo3  1  7.31171000  1.84681000  1.85497000  1
  Mo  Mo4  1  3.60123000  0.01412880  3.61128000  1
  Mo  Mo5  1  5.50019000  1.82282000  3.62518000  1
  Mo  Mo6  1  5.50962000  -0.00255503  1.79038000  1
  Mo  Mo7  1  3.63225000  1.86697000  1.77397000  1
  Mo  Mo8  1  -0.04659770  3.66157000  3.65306000  1
  Mo  Mo9  1  1.80432000  5.48590000  3.65384000  1
  Mo  Mo10  1  1.81843000  3.53801000  1.84549000  1
  Mo  Mo11  1  0.02169840  5.50342000  1.83055000  1
  Mo  Mo12  1  3.67099000  3.62748000  3.60665000  1
  Mo  Mo13  1  5.43359000  5.49556000  -0.00874104  1
  Mo  Mo14  1  5.43359000  3.61782000  1.83566000  1
  Mo  Mo15  1  3.61596000  5.44794000  1.84987000  1
