# generated using pymatgen
data_Mo
_symmetry_space_group_name_H-M   'P 1'
_cell_length_a   7.28420541
_cell_length_b   7.28420541
_cell_length_c   3.64210272
_cell_angle_alpha   90.00000000
_cell_angle_beta   90.00000000
_cell_angle_gamma   90.00000000
_symmetry_Int_Tables_number   1
_chemical_formula_structural   Mo
_chemical_formula_sum   Mo16
_cell_volume   193.24869004
_cell_formula_units_Z   16
loop_
 _symmetry_equiv_pos_site_id
 _symmetry_equiv_pos_as_xyz
  1  'x, y, z'
loop_
 _atom_site_type_symbol
 _atom_site_label
 _atom_site_symmetry_multiplicity
 _atom_site_fract_x
 _atom_site_fract_y
 _atom_site_fract_z
 _atom_site_occupancy
  Mo  Mo0  1  0.01664240  0.02746170  -0.05339450  1
  Mo  Mo1  1  1.84426000  1.80248000  0.06520690  1
  Mo  Mo2  1  1.81878000  0.00495145  1.85572000  1
  Mo  Mo3  1  7.20365000  1.82273000  1.80310000  1
  Mo  Mo4  1  3.61550000  0.06543940  3.69554000  1
  Mo  Mo5  1  5.45698000  1.82105000  3.59619000  1
  Mo  Mo6  1  5.47790000  -0.06314970  1.83404000  1
  Mo  Mo7  1  3.68276000  1.79672000  1.88066000  1
  Mo  Mo8  1  -0.01403620  3.61412000  3.67064000  1
  Mo  Mo9  1  1.77337000  5.50942000  3.61727000  1
  Mo  Mo10  1  1.77084000  3.54044000  1.80425000  1
  Mo  Mo11  1  0.08114030  5.50640000  1.79852000  1
  Mo  Mo12  1  3.61922000  3.57858000  3.60373000  1
  Mo  Mo13  1  5.49517000  5.44410000  -0.04985240  1
  Mo  Mo14  1  5.45761000  3.65073000  1.83454000  1
  Mo  Mo15  1  3.64001000  5.53412000  1.79793000  1
