# generated using pymatgen
data_Mo
_symmetry_space_group_name_H-M   'P 1'
_cell_length_a   7.28420541
_cell_length_b   7.28420541
_cell_length_c   3.64210272
_cell_angle_alpha   90.00000000
_cell_angle_beta   90.00000000
_cell_angle_gamma   90.00000000
_symmetry_Int_Tables_number   1
_chemical_formula_structural   Mo
_chemical_formula_sum   Mo16
_cell_volume   193.24869004
_cell_formula_units_Z   16
loop_
 _symmetry_equiv_pos_site_id
 _symmetry_equiv_pos_as_xyz
  1  'x, y, z'
loop_
 _atom_site_type_symbol
 _atom_site_label
 _atom_site_symmetry_multiplicity
 _atom_site_fract_x
 _atom_site_fract_y
 _atom_site_fract_z
 _atom_site_occupancy
  Mo  Mo0  1  0.02029580  0.04172270  -0.07452470  1
  Mo  Mo1  1  1.79824000  1.80187000  -0.08532950  1
  Mo  Mo2  1  1.77605000  -0.01670150  1.77848000  1
  Mo  Mo3  1  7.30680000  1.78102000  1.77100000  1
  Mo  Mo4  1  3.61589000  0.00096603  3.61787000  1
  Mo  Mo5  1  5.51297000  1.84210000  3.62520000  1
  Mo  Mo6  1  5.47226000  0.08616360  1.82470000  1
  Mo  Mo7  1  3.66117000  1.74514000  1.77052000  1
  Mo  Mo8  1  0.02760140  3.58261000  3.73075000  1
  Mo  Mo9  1  1.81517000  5.42507000  3.77195000  1
  Mo  Mo10  1  1.83876000  3.63949000  1.83090000  1
  Mo  Mo11  1  -0.03182900  5.49177000  1.94132000  1
  Mo  Mo12  1  3.62665000  3.57881000  3.60774000  1
  Mo  Mo13  1  5.42479000  5.51520000  -0.01638540  1
  Mo  Mo14  1  5.45604000  3.66567000  1.84349000  1
  Mo  Mo15  1  3.61893000  5.47469000  1.81642000  1
