# generated using pymatgen
data_Mo
_symmetry_space_group_name_H-M   'P 1'
_cell_length_a   7.28420541
_cell_length_b   7.28420541
_cell_length_c   3.64210272
_cell_angle_alpha   90.00000000
_cell_angle_beta   90.00000000
_cell_angle_gamma   90.00000000
_symmetry_Int_Tables_number   1
_chemical_formula_structural   Mo
_chemical_formula_sum   Mo16
_cell_volume   193.24869004
_cell_formula_units_Z   16
loop_
 _symmetry_equiv_pos_site_id
 _symmetry_equiv_pos_as_xyz
  1  'x, y, z'
loop_
 _atom_site_type_symbol
 _atom_site_label
 _atom_site_symmetry_multiplicity
 _atom_site_fract_x
 _atom_site_fract_y
 _atom_site_fract_z
 _atom_site_occupancy
  Mo  Mo0  1  -0.09672650  0.05874890  0.01035420  1
  Mo  Mo1  1  1.87006000  1.82296000  0.08737390  1
  Mo  Mo2  1  1.79165000  -0.07911820  1.86335000  1
  Mo  Mo3  1  7.28531000  1.89290000  1.83998000  1
  Mo  Mo4  1  3.65171000  -0.03192130  3.64855000  1
  Mo  Mo5  1  5.44934000  1.77962000  3.64939000  1
  Mo  Mo6  1  5.44375000  0.02117480  1.85419000  1
  Mo  Mo7  1  3.61914000  1.83976000  1.85943000  1
  Mo  Mo8  1  0.08314960  3.59587000  3.59807000  1
  Mo  Mo9  1  1.76370000  5.46076000  3.53500000  1
  Mo  Mo10  1  1.80051000  3.61656000  1.79667000  1
  Mo  Mo11  1  0.04183500  5.43605000  1.73288000  1
  Mo  Mo12  1  3.61337000  3.68350000  3.61154000  1
  Mo  Mo13  1  5.46124000  5.46650000  0.01446970  1
  Mo  Mo14  1  5.52993000  3.63579000  1.81726000  1
  Mo  Mo15  1  3.63183000  5.45642000  1.83562000  1
