# generated using pymatgen
data_Mo
_symmetry_space_group_name_H-M   'P 1'
_cell_length_a   7.28420541
_cell_length_b   7.28420541
_cell_length_c   3.64210272
_cell_angle_alpha   90.00000000
_cell_angle_beta   90.00000000
_cell_angle_gamma   90.00000000
_symmetry_Int_Tables_number   1
_chemical_formula_structural   Mo
_chemical_formula_sum   Mo16
_cell_volume   193.24869004
_cell_formula_units_Z   16
loop_
 _symmetry_equiv_pos_site_id
 _symmetry_equiv_pos_as_xyz
  1  'x, y, z'
loop_
 _atom_site_type_symbol
 _atom_site_label
 _atom_site_symmetry_multiplicity
 _atom_site_fract_x
 _atom_site_fract_y
 _atom_site_fract_z
 _atom_site_occupancy
  Mo  Mo0  1  0.01174230  -0.01462930  -0.01589940  1
  Mo  Mo1  1  1.80464000  1.83114000  -0.01135670  1
  Mo  Mo2  1  1.83500000  -0.04323960  1.84455000  1
  Mo  Mo3  1  7.35666000  1.85619000  1.82108000  1
  Mo  Mo4  1  3.63074000  0.03770130  3.69033000  1
  Mo  Mo5  1  5.54918000  1.79879000  3.64700000  1
  Mo  Mo6  1  5.48930000  0.11935900  1.84381000  1
  Mo  Mo7  1  3.61976000  1.79077000  1.76240000  1
  Mo  Mo8  1  -0.01178850  3.64459000  3.70070000  1
  Mo  Mo9  1  1.81531000  5.41171000  3.69779000  1
  Mo  Mo10  1  1.75101000  3.67970000  1.78063000  1
  Mo  Mo11  1  -0.04510840  5.38132000  1.79678000  1
  Mo  Mo12  1  3.64716000  3.56692000  3.60305000  1
  Mo  Mo13  1  5.35669000  5.50614000  0.01064200  1
  Mo  Mo14  1  5.50574000  3.67916000  1.80693000  1
  Mo  Mo15  1  3.62376000  5.40999000  1.77566000  1
