# generated using pymatgen
data_Mo
_symmetry_space_group_name_H-M   'P 1'
_cell_length_a   7.28420541
_cell_length_b   7.28420541
_cell_length_c   3.64210272
_cell_angle_alpha   90.00000000
_cell_angle_beta   90.00000000
_cell_angle_gamma   90.00000000
_symmetry_Int_Tables_number   1
_chemical_formula_structural   Mo
_chemical_formula_sum   Mo16
_cell_volume   193.24869004
_cell_formula_units_Z   16
loop_
 _symmetry_equiv_pos_site_id
 _symmetry_equiv_pos_as_xyz
  1  'x, y, z'
loop_
 _atom_site_type_symbol
 _atom_site_label
 _atom_site_symmetry_multiplicity
 _atom_site_fract_x
 _atom_site_fract_y
 _atom_site_fract_z
 _atom_site_occupancy
  Mo  Mo0  1  -0.00255286  0.02893430  -0.04719790  1
  Mo  Mo1  1  1.80077000  1.82253000  0.01813260  1
  Mo  Mo2  1  1.81354000  0.08697980  1.81543000  1
  Mo  Mo3  1  7.27025000  1.76818000  1.88547000  1
  Mo  Mo4  1  3.64345000  -0.02693570  3.78381000  1
  Mo  Mo5  1  5.39957000  1.84915000  3.70659000  1
  Mo  Mo6  1  5.44215000  -0.00094519  1.83332000  1
  Mo  Mo7  1  3.62440000  1.77846000  1.83745000  1
  Mo  Mo8  1  0.05477380  3.59945000  3.66046000  1
  Mo  Mo9  1  1.80053000  5.45224000  3.61979000  1
  Mo  Mo10  1  1.82678000  3.69388000  1.76179000  1
  Mo  Mo11  1  -0.00558281  5.44950000  1.71871000  1
  Mo  Mo12  1  3.58768000  3.63918000  3.62871000  1
  Mo  Mo13  1  5.57495000  5.42935000  -0.04463990  1
  Mo  Mo14  1  5.47485000  3.62098000  1.79451000  1
  Mo  Mo15  1  3.63424000  5.46466000  1.78175000  1
