# generated using pymatgen
data_Mo
_symmetry_space_group_name_H-M   'P 1'
_cell_length_a   7.28420541
_cell_length_b   7.28420541
_cell_length_c   3.64210272
_cell_angle_alpha   90.00000000
_cell_angle_beta   90.00000000
_cell_angle_gamma   90.00000000
_symmetry_Int_Tables_number   1
_chemical_formula_structural   Mo
_chemical_formula_sum   Mo16
_cell_volume   193.24869004
_cell_formula_units_Z   16
loop_
 _symmetry_equiv_pos_site_id
 _symmetry_equiv_pos_as_xyz
  1  'x, y, z'
loop_
 _atom_site_type_symbol
 _atom_site_label
 _atom_site_symmetry_multiplicity
 _atom_site_fract_x
 _atom_site_fract_y
 _atom_site_fract_z
 _atom_site_occupancy
  Mo  Mo0  1  0.01112250  -0.07471200  0.02113830  1
  Mo  Mo1  1  1.72529000  1.86353000  -0.06559840  1
  Mo  Mo2  1  1.81004000  -0.02293640  1.78364000  1
  Mo  Mo3  1  7.27220000  1.77896000  1.73300000  1
  Mo  Mo4  1  3.65791000  0.05599500  3.59393000  1
  Mo  Mo5  1  5.49542000  1.73581000  3.68405000  1
  Mo  Mo6  1  5.45475000  -0.03974880  1.76646000  1
  Mo  Mo7  1  3.61632000  1.85774000  1.83352000  1
  Mo  Mo8  1  -0.02446450  3.72316000  3.63446000  1
  Mo  Mo9  1  1.87587000  5.42751000  3.69820000  1
  Mo  Mo10  1  1.83403000  3.67826000  1.86598000  1
  Mo  Mo11  1  -0.00110259  5.50407000  1.87513000  1
  Mo  Mo12  1  3.61633000  3.65656000  3.68425000  1
  Mo  Mo13  1  5.45736000  5.48239000  -0.01979490  1
  Mo  Mo14  1  5.42896000  3.54547000  1.84323000  1
  Mo  Mo15  1  3.70975000  5.48353000  1.82249000  1
