# generated using pymatgen
data_Mo
_symmetry_space_group_name_H-M   'P 1'
_cell_length_a   7.27808089
_cell_length_b   7.27808089
_cell_length_c   3.63904047
_cell_angle_alpha   90.00000000
_cell_angle_beta   90.00000000
_cell_angle_gamma   90.00000000
_symmetry_Int_Tables_number   1
_chemical_formula_structural   Mo
_chemical_formula_sum   Mo16
_cell_volume   192.76165285
_cell_formula_units_Z   16
loop_
 _symmetry_equiv_pos_site_id
 _symmetry_equiv_pos_as_xyz
  1  'x, y, z'
loop_
 _atom_site_type_symbol
 _atom_site_label
 _atom_site_symmetry_multiplicity
 _atom_site_fract_x
 _atom_site_fract_y
 _atom_site_fract_z
 _atom_site_occupancy
  Mo  Mo0  1  0.00602014  7.27002000  -0.00898627  1
  Mo  Mo1  1  1.82681000  1.82464000  -0.01217090  1
  Mo  Mo2  1  1.81554000  7.28016000  1.81096000  1
  Mo  Mo3  1  7.27771000  1.81840000  1.80898000  1
  Mo  Mo4  1  3.63107000  7.26468000  3.65177000  1
  Mo  Mo5  1  5.44800000  1.82342000  -0.01101160  1
  Mo  Mo6  1  5.46897000  0.00428892  1.81910000  1
  Mo  Mo7  1  3.64363000  1.81936000  1.82854000  1
  Mo  Mo8  1  7.27842000  3.63508000  3.63746000  1
  Mo  Mo9  1  1.82846000  5.46863000  3.64626000  1
  Mo  Mo10  1  1.81482000  3.65228000  1.83050000  1
  Mo  Mo11  1  7.28381000  5.44984000  1.81938000  1
  Mo  Mo12  1  3.62707000  3.63358000  0.00527453  1
  Mo  Mo13  1  5.45870000  5.46110000  3.64429000  1
  Mo  Mo14  1  5.45548000  3.63524000  1.82257000  1
  Mo  Mo15  1  3.63755000  5.46134000  1.81907000  1
