# generated using pymatgen
data_Mo
_symmetry_space_group_name_H-M   'P 1'
_cell_length_a   7.28420541
_cell_length_b   7.28420541
_cell_length_c   3.64210272
_cell_angle_alpha   90.00000000
_cell_angle_beta   90.00000000
_cell_angle_gamma   90.00000000
_symmetry_Int_Tables_number   1
_chemical_formula_structural   Mo
_chemical_formula_sum   Mo16
_cell_volume   193.24869004
_cell_formula_units_Z   16
loop_
 _symmetry_equiv_pos_site_id
 _symmetry_equiv_pos_as_xyz
  1  'x, y, z'
loop_
 _atom_site_type_symbol
 _atom_site_label
 _atom_site_symmetry_multiplicity
 _atom_site_fract_x
 _atom_site_fract_y
 _atom_site_fract_z
 _atom_site_occupancy
  Mo  Mo0  1  -0.00429865  0.01888210  0.06957580  1
  Mo  Mo1  1  1.77983000  1.84649000  -0.02429160  1
  Mo  Mo2  1  1.80389000  -0.05831540  1.81673000  1
  Mo  Mo3  1  7.34955000  1.84619000  1.81521000  1
  Mo  Mo4  1  3.63438000  0.02957900  3.61082000  1
  Mo  Mo5  1  5.55647000  1.83980000  3.70233000  1
  Mo  Mo6  1  5.41842000  0.06919780  1.80121000  1
  Mo  Mo7  1  3.64917000  1.80585000  1.89507000  1
  Mo  Mo8  1  0.04017260  3.69048000  3.57104000  1
  Mo  Mo9  1  1.82277000  5.32420000  3.64466000  1
  Mo  Mo10  1  1.82975000  3.61029000  1.80699000  1
  Mo  Mo11  1  -0.05492010  5.49432000  1.88326000  1
  Mo  Mo12  1  3.60700000  3.60766000  3.63611000  1
  Mo  Mo13  1  5.42992000  5.50677000  -0.06458800  1
  Mo  Mo14  1  5.46833000  3.54994000  1.79796000  1
  Mo  Mo15  1  3.60937000  5.47426000  1.79201000  1
