# generated using pymatgen
data_Mo
_symmetry_space_group_name_H-M   'P 1'
_cell_length_a   7.28420541
_cell_length_b   7.28420541
_cell_length_c   3.64210272
_cell_angle_alpha   90.00000000
_cell_angle_beta   90.00000000
_cell_angle_gamma   90.00000000
_symmetry_Int_Tables_number   1
_chemical_formula_structural   Mo
_chemical_formula_sum   Mo16
_cell_volume   193.24869004
_cell_formula_units_Z   16
loop_
 _symmetry_equiv_pos_site_id
 _symmetry_equiv_pos_as_xyz
  1  'x, y, z'
loop_
 _atom_site_type_symbol
 _atom_site_label
 _atom_site_symmetry_multiplicity
 _atom_site_fract_x
 _atom_site_fract_y
 _atom_site_fract_z
 _atom_site_occupancy
  Mo  Mo0  1  -0.02417550  -0.03511280  0.05003310  1
  Mo  Mo1  1  1.80393000  1.77129000  0.01141830  1
  Mo  Mo2  1  1.85896000  0.00474674  1.86023000  1
  Mo  Mo3  1  7.29347000  1.81024000  1.83112000  1
  Mo  Mo4  1  3.68934000  0.02188230  3.61073000  1
  Mo  Mo5  1  5.44363000  1.81948000  3.62459000  1
  Mo  Mo6  1  5.52159000  -0.04266010  1.87993000  1
  Mo  Mo7  1  3.68470000  1.86718000  1.80232000  1
  Mo  Mo8  1  0.02126170  3.57623000  3.57742000  1
  Mo  Mo9  1  1.80195000  5.42056000  3.62012000  1
  Mo  Mo10  1  1.83635000  3.60906000  1.80571000  1
  Mo  Mo11  1  -0.00402111  5.45838000  1.76915000  1
  Mo  Mo12  1  3.54604000  3.70797000  3.58734000  1
  Mo  Mo13  1  5.40566000  5.49118000  0.04757340  1
  Mo  Mo14  1  5.42967000  3.65806000  1.82416000  1
  Mo  Mo15  1  3.63143000  5.51710000  1.85226000  1
