# generated using pymatgen
data_Mo
_symmetry_space_group_name_H-M   'P 1'
_cell_length_a   7.28420541
_cell_length_b   7.28420541
_cell_length_c   3.64210272
_cell_angle_alpha   90.00000000
_cell_angle_beta   90.00000000
_cell_angle_gamma   90.00000000
_symmetry_Int_Tables_number   1
_chemical_formula_structural   Mo
_chemical_formula_sum   Mo16
_cell_volume   193.24869004
_cell_formula_units_Z   16
loop_
 _symmetry_equiv_pos_site_id
 _symmetry_equiv_pos_as_xyz
  1  'x, y, z'
loop_
 _atom_site_type_symbol
 _atom_site_label
 _atom_site_symmetry_multiplicity
 _atom_site_fract_x
 _atom_site_fract_y
 _atom_site_fract_z
 _atom_site_occupancy
  Mo  Mo0  1  0.02072690  0.03505110  0.02387360  1
  Mo  Mo1  1  1.82439000  1.81968000  -0.07694140  1
  Mo  Mo2  1  1.82860000  0.04369160  1.73142000  1
  Mo  Mo3  1  7.29604000  1.76677000  1.79511000  1
  Mo  Mo4  1  3.61534000  0.03878880  3.58193000  1
  Mo  Mo5  1  5.43330000  1.87742000  3.62100000  1
  Mo  Mo6  1  5.43113000  0.01606470  1.77896000  1
  Mo  Mo7  1  3.59887000  1.80945000  1.80545000  1
  Mo  Mo8  1  0.00299430  3.60446000  3.61260000  1
  Mo  Mo9  1  1.86797000  5.47110000  3.74462000  1
  Mo  Mo10  1  1.74891000  3.69890000  1.79794000  1
  Mo  Mo11  1  -0.01699310  5.38360000  1.94088000  1
  Mo  Mo12  1  3.64600000  3.64718000  3.73817000  1
  Mo  Mo13  1  5.51573000  5.35015000  0.02298510  1
  Mo  Mo14  1  5.49006000  3.62534000  1.81996000  1
  Mo  Mo15  1  3.63674000  5.46794000  1.81615000  1
