# generated using pymatgen
data_Mo
_symmetry_space_group_name_H-M   'P 1'
_cell_length_a   7.28420541
_cell_length_b   7.28420541
_cell_length_c   3.64210272
_cell_angle_alpha   90.00000000
_cell_angle_beta   90.00000000
_cell_angle_gamma   90.00000000
_symmetry_Int_Tables_number   1
_chemical_formula_structural   Mo
_chemical_formula_sum   Mo16
_cell_volume   193.24869004
_cell_formula_units_Z   16
loop_
 _symmetry_equiv_pos_site_id
 _symmetry_equiv_pos_as_xyz
  1  'x, y, z'
loop_
 _atom_site_type_symbol
 _atom_site_label
 _atom_site_symmetry_multiplicity
 _atom_site_fract_x
 _atom_site_fract_y
 _atom_site_fract_z
 _atom_site_occupancy
  Mo  Mo0  1  0.02955450  -0.03079680  -0.00091643  1
  Mo  Mo1  1  1.87607000  1.70842000  0.03319730  1
  Mo  Mo2  1  1.90776000  -0.01681970  1.87631000  1
  Mo  Mo3  1  7.28579000  1.83655000  1.84175000  1
  Mo  Mo4  1  3.63089000  -0.03440690  3.63154000  1
  Mo  Mo5  1  5.47076000  1.79667000  3.70580000  1
  Mo  Mo6  1  5.47265000  0.03983900  1.85514000  1
  Mo  Mo7  1  3.63507000  1.82174000  1.85541000  1
  Mo  Mo8  1  -0.05686690  3.61706000  3.66681000  1
  Mo  Mo9  1  1.71507000  5.52864000  3.58160000  1
  Mo  Mo10  1  1.80884000  3.61310000  1.83331000  1
  Mo  Mo11  1  -0.04025830  5.43925000  1.75113000  1
  Mo  Mo12  1  3.65454000  3.72682000  3.58116000  1
  Mo  Mo13  1  5.44154000  5.44431000  -0.02928160  1
  Mo  Mo14  1  5.47647000  3.71885000  1.80591000  1
  Mo  Mo15  1  3.63192000  5.44636000  1.76524000  1
