# generated using pymatgen
data_Mo
_symmetry_space_group_name_H-M   'P 1'
_cell_length_a   7.28420541
_cell_length_b   7.28420541
_cell_length_c   3.64210272
_cell_angle_alpha   90.00000000
_cell_angle_beta   90.00000000
_cell_angle_gamma   90.00000000
_symmetry_Int_Tables_number   1
_chemical_formula_structural   Mo
_chemical_formula_sum   Mo16
_cell_volume   193.24869004
_cell_formula_units_Z   16
loop_
 _symmetry_equiv_pos_site_id
 _symmetry_equiv_pos_as_xyz
  1  'x, y, z'
loop_
 _atom_site_type_symbol
 _atom_site_label
 _atom_site_symmetry_multiplicity
 _atom_site_fract_x
 _atom_site_fract_y
 _atom_site_fract_z
 _atom_site_occupancy
  Mo  Mo0  1  0.00554134  0.01620710  -0.01054210  1
  Mo  Mo1  1  1.86994000  1.82390000  0.07278970  1
  Mo  Mo2  1  1.79858000  -0.03249630  1.78488000  1
  Mo  Mo3  1  7.33659000  1.71523000  1.91595000  1
  Mo  Mo4  1  3.67798000  -0.02797490  3.71929000  1
  Mo  Mo5  1  5.42358000  1.87384000  3.61831000  1
  Mo  Mo6  1  5.47050000  -0.08776810  1.79966000  1
  Mo  Mo7  1  3.69266000  1.85134000  1.76823000  1
  Mo  Mo8  1  -0.03801260  3.59073000  3.69252000  1
  Mo  Mo9  1  1.81542000  5.42096000  3.58601000  1
  Mo  Mo10  1  1.78729000  3.67410000  1.77447000  1
  Mo  Mo11  1  -0.04389630  5.47133000  1.80158000  1
  Mo  Mo12  1  3.62730000  3.71538000  3.58432000  1
  Mo  Mo13  1  5.48079000  5.46863000  0.02701830  1
  Mo  Mo14  1  5.41168000  3.66167000  1.81247000  1
  Mo  Mo15  1  3.62384000  5.52051000  1.80715000  1
