# generated using pymatgen
data_Mo
_symmetry_space_group_name_H-M   'P 1'
_cell_length_a   7.28420541
_cell_length_b   7.28420541
_cell_length_c   3.64210272
_cell_angle_alpha   90.00000000
_cell_angle_beta   90.00000000
_cell_angle_gamma   90.00000000
_symmetry_Int_Tables_number   1
_chemical_formula_structural   Mo
_chemical_formula_sum   Mo16
_cell_volume   193.24869004
_cell_formula_units_Z   16
loop_
 _symmetry_equiv_pos_site_id
 _symmetry_equiv_pos_as_xyz
  1  'x, y, z'
loop_
 _atom_site_type_symbol
 _atom_site_label
 _atom_site_symmetry_multiplicity
 _atom_site_fract_x
 _atom_site_fract_y
 _atom_site_fract_z
 _atom_site_occupancy
  Mo  Mo0  1  0.00529293  -0.05979200  0.02070670  1
  Mo  Mo1  1  1.83923000  1.83460000  0.00522779  1
  Mo  Mo2  1  1.76287000  0.06164790  1.83774000  1
  Mo  Mo3  1  7.24810000  1.79828000  1.82634000  1
  Mo  Mo4  1  3.59792000  -0.08608290  3.59377000  1
  Mo  Mo5  1  5.44828000  1.95129000  3.55598000  1
  Mo  Mo6  1  5.43983000  -0.07765480  1.87521000  1
  Mo  Mo7  1  3.73582000  1.80573000  1.80051000  1
  Mo  Mo8  1  -0.00789512  3.61788000  3.58388000  1
  Mo  Mo9  1  1.79124000  5.44947000  3.57911000  1
  Mo  Mo10  1  1.90618000  3.60431000  1.82597000  1
  Mo  Mo11  1  -0.01388020  5.48750000  1.83114000  1
  Mo  Mo12  1  3.72600000  3.59438000  3.71733000  1
  Mo  Mo13  1  5.45894000  5.45612000  0.03134360  1
  Mo  Mo14  1  5.43991000  3.74622000  1.85497000  1
  Mo  Mo15  1  3.56197000  5.47170000  1.81489000  1
