# generated using pymatgen
data_Mo
_symmetry_space_group_name_H-M   'P 1'
_cell_length_a   7.28420541
_cell_length_b   7.28420541
_cell_length_c   3.64210272
_cell_angle_alpha   90.00000000
_cell_angle_beta   90.00000000
_cell_angle_gamma   90.00000000
_symmetry_Int_Tables_number   1
_chemical_formula_structural   Mo
_chemical_formula_sum   Mo16
_cell_volume   193.24869004
_cell_formula_units_Z   16
loop_
 _symmetry_equiv_pos_site_id
 _symmetry_equiv_pos_as_xyz
  1  'x, y, z'
loop_
 _atom_site_type_symbol
 _atom_site_label
 _atom_site_symmetry_multiplicity
 _atom_site_fract_x
 _atom_site_fract_y
 _atom_site_fract_z
 _atom_site_occupancy
  Mo  Mo0  1  -0.01884910  0.06066780  0.04480850  1
  Mo  Mo1  1  1.85679000  1.89347000  -0.06854730  1
  Mo  Mo2  1  1.80512000  0.03116640  1.75129000  1
  Mo  Mo3  1  7.25260000  1.77176000  1.74723000  1
  Mo  Mo4  1  3.62556000  -0.01067640  3.60252000  1
  Mo  Mo5  1  5.36490000  1.82153000  3.63760000  1
  Mo  Mo6  1  5.42320000  -0.07885280  1.78878000  1
  Mo  Mo7  1  3.68665000  1.79958000  1.80244000  1
  Mo  Mo8  1  -0.02576330  3.63735000  3.60346000  1
  Mo  Mo9  1  1.84712000  5.36984000  3.73258000  1
  Mo  Mo10  1  1.81324000  3.71235000  1.82394000  1
  Mo  Mo11  1  0.02593980  5.45375000  1.92133000  1
  Mo  Mo12  1  3.65303000  3.68366000  3.71395000  1
  Mo  Mo13  1  5.53390000  5.42304000  -0.00084066  1
  Mo  Mo14  1  5.47593000  3.61220000  1.83745000  1
  Mo  Mo15  1  3.62045000  5.47475000  1.81612000  1
