# generated using pymatgen
data_Mo
_symmetry_space_group_name_H-M   'P 1'
_cell_length_a   7.28420541
_cell_length_b   7.28420541
_cell_length_c   3.64210272
_cell_angle_alpha   90.00000000
_cell_angle_beta   90.00000000
_cell_angle_gamma   90.00000000
_symmetry_Int_Tables_number   1
_chemical_formula_structural   Mo
_chemical_formula_sum   Mo16
_cell_volume   193.24869004
_cell_formula_units_Z   16
loop_
 _symmetry_equiv_pos_site_id
 _symmetry_equiv_pos_as_xyz
  1  'x, y, z'
loop_
 _atom_site_type_symbol
 _atom_site_label
 _atom_site_symmetry_multiplicity
 _atom_site_fract_x
 _atom_site_fract_y
 _atom_site_fract_z
 _atom_site_occupancy
  Mo  Mo0  1  -0.02319050  -0.02564970  0.01663560  1
  Mo  Mo1  1  1.82869000  1.83374000  0.04539950  1
  Mo  Mo2  1  1.77413000  -0.05725430  1.87431000  1
  Mo  Mo3  1  7.34194000  1.83794000  1.82358000  1
  Mo  Mo4  1  3.58461000  0.02661890  3.62509000  1
  Mo  Mo5  1  5.46735000  1.80326000  3.63241000  1
  Mo  Mo6  1  5.47725000  0.08137330  1.88786000  1
  Mo  Mo7  1  3.57649000  1.85144000  1.85671000  1
  Mo  Mo8  1  0.03008900  3.62273000  3.59573000  1
  Mo  Mo9  1  1.81362000  5.49040000  3.57030000  1
  Mo  Mo10  1  1.84732000  3.65451000  1.83143000  1
  Mo  Mo11  1  -0.01847740  5.47653000  1.75845000  1
  Mo  Mo12  1  3.67527000  3.52641000  3.67191000  1
  Mo  Mo13  1  5.40825000  5.51284000  -0.01898630  1
  Mo  Mo14  1  5.48567000  3.62568000  1.81898000  1
  Mo  Mo15  1  3.67079000  5.39503000  1.76430000  1
