# generated using pymatgen
data_Mo
_symmetry_space_group_name_H-M   'P 1'
_cell_length_a   7.27808089
_cell_length_b   7.27808089
_cell_length_c   3.63904047
_cell_angle_alpha   90.00000000
_cell_angle_beta   90.00000000
_cell_angle_gamma   90.00000000
_symmetry_Int_Tables_number   1
_chemical_formula_structural   Mo
_chemical_formula_sum   Mo16
_cell_volume   192.76165285
_cell_formula_units_Z   16
loop_
 _symmetry_equiv_pos_site_id
 _symmetry_equiv_pos_as_xyz
  1  'x, y, z'
loop_
 _atom_site_type_symbol
 _atom_site_label
 _atom_site_symmetry_multiplicity
 _atom_site_fract_x
 _atom_site_fract_y
 _atom_site_fract_z
 _atom_site_occupancy
  Mo  Mo0  1  0.00414794  7.26784000  0.01069420  1
  Mo  Mo1  1  1.83140000  1.82631000  0.00667416  1
  Mo  Mo2  1  1.81008000  7.29109000  1.82210000  1
  Mo  Mo3  1  7.29288000  1.81759000  1.83770000  1
  Mo  Mo4  1  3.63999000  7.26269000  3.64485000  1
  Mo  Mo5  1  5.45519000  1.82005000  -0.00487995  1
  Mo  Mo6  1  5.45481000  0.00264647  1.80895000  1
  Mo  Mo7  1  3.64204000  1.81902000  1.81837000  1
  Mo  Mo8  1  7.27093000  3.64182000  3.63704000  1
  Mo  Mo9  1  1.81628000  5.46545000  3.63217000  1
  Mo  Mo10  1  1.82714000  3.64004000  1.81757000  1
  Mo  Mo11  1  7.27482000  5.45468000  1.81047000  1
  Mo  Mo12  1  3.62750000  3.63154000  -0.00578133  1
  Mo  Mo13  1  5.45928000  5.46319000  3.63526000  1
  Mo  Mo14  1  5.46398000  3.63921000  1.83331000  1
  Mo  Mo15  1  3.63161000  5.45891000  1.80752000  1
