# generated using pymatgen
data_Mo
_symmetry_space_group_name_H-M   'P 1'
_cell_length_a   7.28420541
_cell_length_b   7.28420541
_cell_length_c   3.64210272
_cell_angle_alpha   90.00000000
_cell_angle_beta   90.00000000
_cell_angle_gamma   90.00000000
_symmetry_Int_Tables_number   1
_chemical_formula_structural   Mo
_chemical_formula_sum   Mo16
_cell_volume   193.24869004
_cell_formula_units_Z   16
loop_
 _symmetry_equiv_pos_site_id
 _symmetry_equiv_pos_as_xyz
  1  'x, y, z'
loop_
 _atom_site_type_symbol
 _atom_site_label
 _atom_site_symmetry_multiplicity
 _atom_site_fract_x
 _atom_site_fract_y
 _atom_site_fract_z
 _atom_site_occupancy
  Mo  Mo0  1  -0.03305620  0.03913100  -0.00196635  1
  Mo  Mo1  1  1.77816000  1.86901000  -0.07186570  1
  Mo  Mo2  1  1.78977000  0.01999250  1.78475000  1
  Mo  Mo3  1  7.24740000  1.80030000  1.79228000  1
  Mo  Mo4  1  3.63657000  0.07135540  3.57359000  1
  Mo  Mo5  1  5.50683000  1.74117000  3.58374000  1
  Mo  Mo6  1  5.44583000  -0.09065670  1.86405000  1
  Mo  Mo7  1  3.65497000  1.83323000  1.76573000  1
  Mo  Mo8  1  0.06312240  3.58510000  3.60336000  1
  Mo  Mo9  1  1.84002000  5.51250000  3.69257000  1
  Mo  Mo10  1  1.78623000  3.63419000  1.81714000  1
  Mo  Mo11  1  0.06758730  5.48274000  1.82590000  1
  Mo  Mo12  1  3.58362000  3.61036000  3.70452000  1
  Mo  Mo13  1  5.43466000  5.42886000  0.01249370  1
  Mo  Mo14  1  5.46312000  3.61794000  1.86960000  1
  Mo  Mo15  1  3.67495000  5.50038000  1.93823000  1
