# generated using pymatgen
data_Mo
_symmetry_space_group_name_H-M   'P 1'
_cell_length_a   7.28420541
_cell_length_b   7.28420541
_cell_length_c   3.64210272
_cell_angle_alpha   90.00000000
_cell_angle_beta   90.00000000
_cell_angle_gamma   90.00000000
_symmetry_Int_Tables_number   1
_chemical_formula_structural   Mo
_chemical_formula_sum   Mo16
_cell_volume   193.24869004
_cell_formula_units_Z   16
loop_
 _symmetry_equiv_pos_site_id
 _symmetry_equiv_pos_as_xyz
  1  'x, y, z'
loop_
 _atom_site_type_symbol
 _atom_site_label
 _atom_site_symmetry_multiplicity
 _atom_site_fract_x
 _atom_site_fract_y
 _atom_site_fract_z
 _atom_site_occupancy
  Mo  Mo0  1  0.00874209  0.11703200  -0.05507100  1
  Mo  Mo1  1  1.82121000  1.81659000  0.01759040  1
  Mo  Mo2  1  1.77863000  0.05679120  1.82039000  1
  Mo  Mo3  1  7.28447000  1.84066000  1.81003000  1
  Mo  Mo4  1  3.56167000  -0.02551830  3.70798000  1
  Mo  Mo5  1  5.40568000  1.88938000  3.55182000  1
  Mo  Mo6  1  5.45452000  -0.07093100  1.80837000  1
  Mo  Mo7  1  3.67011000  1.74441000  1.77214000  1
  Mo  Mo8  1  -0.04023380  3.64298000  3.64053000  1
  Mo  Mo9  1  1.84245000  5.35724000  3.64935000  1
  Mo  Mo10  1  1.85154000  3.59534000  1.83798000  1
  Mo  Mo11  1  0.01412140  5.49071000  1.81076000  1
  Mo  Mo12  1  3.68554000  3.61711000  3.60260000  1
  Mo  Mo13  1  5.50167000  5.43441000  0.02538770  1
  Mo  Mo14  1  5.49491000  3.67271000  1.83813000  1
  Mo  Mo15  1  3.60476000  5.47667000  1.91611000  1
