# generated using pymatgen
data_Mo
_symmetry_space_group_name_H-M   'P 1'
_cell_length_a   7.28420541
_cell_length_b   7.28420541
_cell_length_c   3.64210272
_cell_angle_alpha   90.00000000
_cell_angle_beta   90.00000000
_cell_angle_gamma   90.00000000
_symmetry_Int_Tables_number   1
_chemical_formula_structural   Mo
_chemical_formula_sum   Mo16
_cell_volume   193.24869004
_cell_formula_units_Z   16
loop_
 _symmetry_equiv_pos_site_id
 _symmetry_equiv_pos_as_xyz
  1  'x, y, z'
loop_
 _atom_site_type_symbol
 _atom_site_label
 _atom_site_symmetry_multiplicity
 _atom_site_fract_x
 _atom_site_fract_y
 _atom_site_fract_z
 _atom_site_occupancy
  Mo  Mo0  1  0.06910960  -0.01441180  -0.02896500  1
  Mo  Mo1  1  1.87990000  1.79056000  0.06546890  1
  Mo  Mo2  1  1.82001000  0.05624160  1.83388000  1
  Mo  Mo3  1  7.21265000  1.80805000  1.93689000  1
  Mo  Mo4  1  3.61680000  0.02871900  3.68246000  1
  Mo  Mo5  1  5.50115000  1.74551000  3.67953000  1
  Mo  Mo6  1  5.51378000  0.04348100  1.84832000  1
  Mo  Mo7  1  3.67709000  1.79777000  1.82899000  1
  Mo  Mo8  1  -0.04428430  3.58730000  3.67678000  1
  Mo  Mo9  1  1.75919000  5.53592000  3.54837000  1
  Mo  Mo10  1  1.79576000  3.57429000  1.77376000  1
  Mo  Mo11  1  0.05344690  5.35439000  1.75505000  1
  Mo  Mo12  1  3.63614000  3.66386000  3.58212000  1
  Mo  Mo13  1  5.49460000  5.49135000  -0.01021760  1
  Mo  Mo14  1  5.39817000  3.72239000  1.77390000  1
  Mo  Mo15  1  3.55628000  5.47017000  1.80777000  1
