# generated using pymatgen
data_Mo
_symmetry_space_group_name_H-M   'P 1'
_cell_length_a   7.28420541
_cell_length_b   7.28420541
_cell_length_c   3.64210272
_cell_angle_alpha   90.00000000
_cell_angle_beta   90.00000000
_cell_angle_gamma   90.00000000
_symmetry_Int_Tables_number   1
_chemical_formula_structural   Mo
_chemical_formula_sum   Mo16
_cell_volume   193.24869004
_cell_formula_units_Z   16
loop_
 _symmetry_equiv_pos_site_id
 _symmetry_equiv_pos_as_xyz
  1  'x, y, z'
loop_
 _atom_site_type_symbol
 _atom_site_label
 _atom_site_symmetry_multiplicity
 _atom_site_fract_x
 _atom_site_fract_y
 _atom_site_fract_z
 _atom_site_occupancy
  Mo  Mo0  1  -0.01278020  0.00306919  -0.01080420  1
  Mo  Mo1  1  1.88146000  1.87625000  -0.04818650  1
  Mo  Mo2  1  1.81521000  -0.05958480  1.70726000  1
  Mo  Mo3  1  7.26244000  1.77163000  1.75750000  1
  Mo  Mo4  1  3.62998000  -0.00469678  3.58560000  1
  Mo  Mo5  1  5.41347000  1.76187000  3.63320000  1
  Mo  Mo6  1  5.40290000  -0.06415450  1.86903000  1
  Mo  Mo7  1  3.60160000  1.81187000  1.90438000  1
  Mo  Mo8  1  0.00463497  3.62314000  3.63971000  1
  Mo  Mo9  1  1.72807000  5.46544000  3.70694000  1
  Mo  Mo10  1  1.88479000  3.62488000  1.83545000  1
  Mo  Mo11  1  0.02000670  5.54085000  1.92520000  1
  Mo  Mo12  1  3.69254000  3.62421000  3.67534000  1
  Mo  Mo13  1  5.49041000  5.51642000  -0.03173970  1
  Mo  Mo14  1  5.48711000  3.66348000  1.81379000  1
  Mo  Mo15  1  3.63795000  5.50091000  1.79144000  1
