# generated using pymatgen
data_Mo
_symmetry_space_group_name_H-M   'P 1'
_cell_length_a   7.28420541
_cell_length_b   7.28420541
_cell_length_c   3.64210272
_cell_angle_alpha   90.00000000
_cell_angle_beta   90.00000000
_cell_angle_gamma   90.00000000
_symmetry_Int_Tables_number   1
_chemical_formula_structural   Mo
_chemical_formula_sum   Mo16
_cell_volume   193.24869004
_cell_formula_units_Z   16
loop_
 _symmetry_equiv_pos_site_id
 _symmetry_equiv_pos_as_xyz
  1  'x, y, z'
loop_
 _atom_site_type_symbol
 _atom_site_label
 _atom_site_symmetry_multiplicity
 _atom_site_fract_x
 _atom_site_fract_y
 _atom_site_fract_z
 _atom_site_occupancy
  Mo  Mo0  1  -0.01852600  -0.03240010  0.01563600  1
  Mo  Mo1  1  1.80921000  1.82528000  -0.02461300  1
  Mo  Mo2  1  1.87970000  -0.04334320  1.85708000  1
  Mo  Mo3  1  7.30048000  1.87938000  1.80001000  1
  Mo  Mo4  1  3.66414000  0.02164150  3.58015000  1
  Mo  Mo5  1  5.47484000  1.83369000  3.59625000  1
  Mo  Mo6  1  5.43572000  0.03056780  1.84243000  1
  Mo  Mo7  1  3.62060000  1.87771000  1.73746000  1
  Mo  Mo8  1  0.01615810  3.58727000  3.67810000  1
  Mo  Mo9  1  1.78011000  5.45732000  3.60533000  1
  Mo  Mo10  1  1.81839000  3.61863000  1.87766000  1
  Mo  Mo11  1  0.02190040  5.42927000  1.81680000  1
  Mo  Mo12  1  3.57772000  3.66705000  3.58671000  1
  Mo  Mo13  1  5.43050000  5.45020000  0.04775700  1
  Mo  Mo14  1  5.48377000  3.56993000  1.85907000  1
  Mo  Mo15  1  3.64508000  5.48338000  1.87827000  1
