# generated using pymatgen
data_Mo
_symmetry_space_group_name_H-M   'P 1'
_cell_length_a   7.28420541
_cell_length_b   7.28420541
_cell_length_c   3.64210272
_cell_angle_alpha   90.00000000
_cell_angle_beta   90.00000000
_cell_angle_gamma   90.00000000
_symmetry_Int_Tables_number   1
_chemical_formula_structural   Mo
_chemical_formula_sum   Mo16
_cell_volume   193.24869004
_cell_formula_units_Z   16
loop_
 _symmetry_equiv_pos_site_id
 _symmetry_equiv_pos_as_xyz
  1  'x, y, z'
loop_
 _atom_site_type_symbol
 _atom_site_label
 _atom_site_symmetry_multiplicity
 _atom_site_fract_x
 _atom_site_fract_y
 _atom_site_fract_z
 _atom_site_occupancy
  Mo  Mo0  1  -0.01556820  -0.01062700  -0.00041702  1
  Mo  Mo1  1  1.87557000  1.84636000  0.02079100  1
  Mo  Mo2  1  1.82556000  0.00187148  1.82335000  1
  Mo  Mo3  1  7.26730000  1.70246000  1.91751000  1
  Mo  Mo4  1  3.71783000  0.04068000  3.72601000  1
  Mo  Mo5  1  5.49204000  1.78280000  3.64903000  1
  Mo  Mo6  1  5.47238000  0.05779090  1.83988000  1
  Mo  Mo7  1  3.63619000  1.83315000  1.78714000  1
  Mo  Mo8  1  0.01799190  3.59761000  3.68095000  1
  Mo  Mo9  1  1.83460000  5.47003000  3.55121000  1
  Mo  Mo10  1  1.79409000  3.65040000  1.78283000  1
  Mo  Mo11  1  0.00560195  5.41395000  1.80975000  1
  Mo  Mo12  1  3.56532000  3.67444000  3.59507000  1
  Mo  Mo13  1  5.47278000  5.46750000  -0.01113840  1
  Mo  Mo14  1  5.40305000  3.64168000  1.77131000  1
  Mo  Mo15  1  3.57506000  5.48549000  1.81083000  1
