# generated using pymatgen
data_Mo
_symmetry_space_group_name_H-M   'P 1'
_cell_length_a   7.28420541
_cell_length_b   7.28420541
_cell_length_c   3.64210272
_cell_angle_alpha   90.00000000
_cell_angle_beta   90.00000000
_cell_angle_gamma   90.00000000
_symmetry_Int_Tables_number   1
_chemical_formula_structural   Mo
_chemical_formula_sum   Mo16
_cell_volume   193.24869004
_cell_formula_units_Z   16
loop_
 _symmetry_equiv_pos_site_id
 _symmetry_equiv_pos_as_xyz
  1  'x, y, z'
loop_
 _atom_site_type_symbol
 _atom_site_label
 _atom_site_symmetry_multiplicity
 _atom_site_fract_x
 _atom_site_fract_y
 _atom_site_fract_z
 _atom_site_occupancy
  Mo  Mo0  1  -0.00391239  0.08833550  -0.02767660  1
  Mo  Mo1  1  1.82334000  1.85007000  -0.00375056  1
  Mo  Mo2  1  1.80919000  0.03084430  1.84326000  1
  Mo  Mo3  1  7.31612000  1.77440000  1.72418000  1
  Mo  Mo4  1  3.62655000  -0.02612980  3.68269000  1
  Mo  Mo5  1  5.43867000  1.81568000  3.60723000  1
  Mo  Mo6  1  5.45957000  0.00862379  1.73941000  1
  Mo  Mo7  1  3.60807000  1.80229000  1.79894000  1
  Mo  Mo8  1  -0.01151940  3.57627000  3.65468000  1
  Mo  Mo9  1  1.81834000  5.43502000  3.68980000  1
  Mo  Mo10  1  1.87182000  3.65739000  1.81132000  1
  Mo  Mo11  1  -0.02329940  5.42054000  1.83861000  1
  Mo  Mo12  1  3.62514000  3.62958000  3.69397000  1
  Mo  Mo13  1  5.53330000  5.50207000  0.01800800  1
  Mo  Mo14  1  5.43803000  3.68083000  1.84782000  1
  Mo  Mo15  1  3.61038000  5.40976000  1.83561000  1
