# generated using pymatgen
data_Mo
_symmetry_space_group_name_H-M   'P 1'
_cell_length_a   7.28420541
_cell_length_b   7.28420541
_cell_length_c   3.64210272
_cell_angle_alpha   90.00000000
_cell_angle_beta   90.00000000
_cell_angle_gamma   90.00000000
_symmetry_Int_Tables_number   1
_chemical_formula_structural   Mo
_chemical_formula_sum   Mo16
_cell_volume   193.24869004
_cell_formula_units_Z   16
loop_
 _symmetry_equiv_pos_site_id
 _symmetry_equiv_pos_as_xyz
  1  'x, y, z'
loop_
 _atom_site_type_symbol
 _atom_site_label
 _atom_site_symmetry_multiplicity
 _atom_site_fract_x
 _atom_site_fract_y
 _atom_site_fract_z
 _atom_site_occupancy
  Mo  Mo0  1  0.06907250  0.04246600  0.04995260  1
  Mo  Mo1  1  1.79423000  1.79711000  0.01726470  1
  Mo  Mo2  1  1.83010000  0.15247200  1.80897000  1
  Mo  Mo3  1  7.24229000  1.71539000  1.80106000  1
  Mo  Mo4  1  3.64152000  -0.00745360  3.61526000  1
  Mo  Mo5  1  5.41564000  1.84197000  3.59091000  1
  Mo  Mo6  1  5.49495000  -0.00516495  1.80606000  1
  Mo  Mo7  1  3.65662000  1.77657000  1.80066000  1
  Mo  Mo8  1  -0.01704220  3.56609000  3.61133000  1
  Mo  Mo9  1  1.81665000  5.48094000  3.63063000  1
  Mo  Mo10  1  1.82661000  3.66720000  1.82381000  1
  Mo  Mo11  1  0.00767477  5.46326000  1.83699000  1
  Mo  Mo12  1  3.60239000  3.65048000  3.75528000  1
  Mo  Mo13  1  5.54071000  5.39901000  0.03203100  1
  Mo  Mo14  1  5.42178000  3.63980000  1.81609000  1
  Mo  Mo15  1  3.59660000  5.47544000  1.75781000  1
