# generated using pymatgen
data_Mo
_symmetry_space_group_name_H-M   'P 1'
_cell_length_a   7.28420541
_cell_length_b   7.28420541
_cell_length_c   3.64210272
_cell_angle_alpha   90.00000000
_cell_angle_beta   90.00000000
_cell_angle_gamma   90.00000000
_symmetry_Int_Tables_number   1
_chemical_formula_structural   Mo
_chemical_formula_sum   Mo16
_cell_volume   193.24869004
_cell_formula_units_Z   16
loop_
 _symmetry_equiv_pos_site_id
 _symmetry_equiv_pos_as_xyz
  1  'x, y, z'
loop_
 _atom_site_type_symbol
 _atom_site_label
 _atom_site_symmetry_multiplicity
 _atom_site_fract_x
 _atom_site_fract_y
 _atom_site_fract_z
 _atom_site_occupancy
  Mo  Mo0  1  -0.00704806  -0.05216930  -0.05534780  1
  Mo  Mo1  1  1.76034000  1.93636000  0.00479651  1
  Mo  Mo2  1  1.83923000  0.07956940  1.83612000  1
  Mo  Mo3  1  7.18419000  1.80505000  1.83007000  1
  Mo  Mo4  1  3.68300000  -0.05878890  3.74130000  1
  Mo  Mo5  1  5.43562000  1.82749000  3.73640000  1
  Mo  Mo6  1  5.45335000  -0.07996570  1.85773000  1
  Mo  Mo7  1  3.68995000  1.77330000  1.87577000  1
  Mo  Mo8  1  0.00951647  3.60570000  3.65985000  1
  Mo  Mo9  1  1.85690000  5.41905000  3.65277000  1
  Mo  Mo10  1  1.82145000  3.70343000  1.77907000  1
  Mo  Mo11  1  0.05373550  5.41862000  1.76238000  1
  Mo  Mo12  1  3.61998000  3.64824000  3.63004000  1
  Mo  Mo13  1  5.49158000  5.44375000  -0.11002400  1
  Mo  Mo14  1  5.45487000  3.69156000  1.81212000  1
  Mo  Mo15  1  3.59315000  5.49439000  1.74105000  1
