# generated using pymatgen
data_Mo
_symmetry_space_group_name_H-M   'P 1'
_cell_length_a   7.28420541
_cell_length_b   7.28420541
_cell_length_c   3.64210272
_cell_angle_alpha   90.00000000
_cell_angle_beta   90.00000000
_cell_angle_gamma   90.00000000
_symmetry_Int_Tables_number   1
_chemical_formula_structural   Mo
_chemical_formula_sum   Mo16
_cell_volume   193.24869004
_cell_formula_units_Z   16
loop_
 _symmetry_equiv_pos_site_id
 _symmetry_equiv_pos_as_xyz
  1  'x, y, z'
loop_
 _atom_site_type_symbol
 _atom_site_label
 _atom_site_symmetry_multiplicity
 _atom_site_fract_x
 _atom_site_fract_y
 _atom_site_fract_z
 _atom_site_occupancy
  Mo  Mo0  1  0.01354460  -0.02326850  -0.00204457  1
  Mo  Mo1  1  1.80386000  1.77770000  0.03097770  1
  Mo  Mo2  1  1.86497000  -0.01084730  1.82661000  1
  Mo  Mo3  1  7.31032000  1.83399000  1.80499000  1
  Mo  Mo4  1  3.62493000  0.04372880  3.61953000  1
  Mo  Mo5  1  5.40631000  1.81942000  3.72065000  1
  Mo  Mo6  1  5.47154000  -0.00507667  1.83074000  1
  Mo  Mo7  1  3.65718000  1.86174000  1.88803000  1
  Mo  Mo8  1  0.01139880  3.57456000  3.67531000  1
  Mo  Mo9  1  1.77194000  5.51295000  3.65753000  1
  Mo  Mo10  1  1.81202000  3.63212000  1.81030000  1
  Mo  Mo11  1  0.02167050  5.49216000  1.80086000  1
  Mo  Mo12  1  3.61694000  3.62570000  3.57117000  1
  Mo  Mo13  1  5.44221000  5.46497000  -0.03260230  1
  Mo  Mo14  1  5.46087000  3.54684000  1.82649000  1
  Mo  Mo15  1  3.65009000  5.50890000  1.72558000  1
