# generated using pymatgen
data_Mo
_symmetry_space_group_name_H-M   'P 1'
_cell_length_a   7.27808089
_cell_length_b   7.27808089
_cell_length_c   3.63904047
_cell_angle_alpha   90.00000000
_cell_angle_beta   90.00000000
_cell_angle_gamma   90.00000000
_symmetry_Int_Tables_number   1
_chemical_formula_structural   Mo
_chemical_formula_sum   Mo16
_cell_volume   192.76165285
_cell_formula_units_Z   16
loop_
 _symmetry_equiv_pos_site_id
 _symmetry_equiv_pos_as_xyz
  1  'x, y, z'
loop_
 _atom_site_type_symbol
 _atom_site_label
 _atom_site_symmetry_multiplicity
 _atom_site_fract_x
 _atom_site_fract_y
 _atom_site_fract_z
 _atom_site_occupancy
  Mo  Mo0  1  -0.00682178  7.28786000  -0.00866686  1
  Mo  Mo1  1  1.82267000  1.82039000  0.00009211  1
  Mo  Mo2  1  1.82366000  7.27979000  1.82437000  1
  Mo  Mo3  1  7.27157000  1.82459000  1.81439000  1
  Mo  Mo4  1  3.63736000  7.28704000  3.63041000  1
  Mo  Mo5  1  5.45957000  1.81576000  0.00067227  1
  Mo  Mo6  1  5.47833000  -0.00772868  1.81391000  1
  Mo  Mo7  1  3.63782000  1.81223000  1.81848000  1
  Mo  Mo8  1  7.28388000  3.63381000  3.63913000  1
  Mo  Mo9  1  1.82163000  5.46666000  3.63981000  1
  Mo  Mo10  1  1.80551000  3.63388000  1.81383000  1
  Mo  Mo11  1  7.26741000  5.45527000  1.81196000  1
  Mo  Mo12  1  3.64360000  3.64508000  0.01593790  1
  Mo  Mo13  1  5.45421000  5.45773000  3.64516000  1
  Mo  Mo14  1  5.45018000  3.62824000  1.81626000  1
  Mo  Mo15  1  3.65151000  5.46149000  1.83626000  1
