# generated using pymatgen
data_Mo
_symmetry_space_group_name_H-M   'P 1'
_cell_length_a   7.28420541
_cell_length_b   7.28420541
_cell_length_c   3.64210272
_cell_angle_alpha   90.00000000
_cell_angle_beta   90.00000000
_cell_angle_gamma   90.00000000
_symmetry_Int_Tables_number   1
_chemical_formula_structural   Mo
_chemical_formula_sum   Mo16
_cell_volume   193.24869004
_cell_formula_units_Z   16
loop_
 _symmetry_equiv_pos_site_id
 _symmetry_equiv_pos_as_xyz
  1  'x, y, z'
loop_
 _atom_site_type_symbol
 _atom_site_label
 _atom_site_symmetry_multiplicity
 _atom_site_fract_x
 _atom_site_fract_y
 _atom_site_fract_z
 _atom_site_occupancy
  Mo  Mo0  1  -0.02579420  -0.00370323  -0.01830520  1
  Mo  Mo1  1  1.86007000  1.82993000  0.05086570  1
  Mo  Mo2  1  1.81729000  -0.04372360  1.80094000  1
  Mo  Mo3  1  7.34178000  1.75505000  1.90718000  1
  Mo  Mo4  1  3.70833000  0.01937970  3.71693000  1
  Mo  Mo5  1  5.48497000  1.85361000  3.60088000  1
  Mo  Mo6  1  5.47580000  0.07108500  1.80630000  1
  Mo  Mo7  1  3.64857000  1.84247000  1.78286000  1
  Mo  Mo8  1  0.04656730  3.62395000  3.69197000  1
  Mo  Mo9  1  1.84192000  5.40053000  3.63754000  1
  Mo  Mo10  1  1.78439000  3.66736000  1.74788000  1
  Mo  Mo11  1  -0.06058830  5.44279000  1.81572000  1
  Mo  Mo12  1  3.58269000  3.60331000  3.58266000  1
  Mo  Mo13  1  5.41295000  5.49859000  0.03746100  1
  Mo  Mo14  1  5.41835000  3.65902000  1.78095000  1
  Mo  Mo15  1  3.60249000  5.43594000  1.81229000  1
