# generated using pymatgen
data_Mo
_symmetry_space_group_name_H-M   'P 1'
_cell_length_a   7.28420541
_cell_length_b   7.28420541
_cell_length_c   3.64210272
_cell_angle_alpha   90.00000000
_cell_angle_beta   90.00000000
_cell_angle_gamma   90.00000000
_symmetry_Int_Tables_number   1
_chemical_formula_structural   Mo
_chemical_formula_sum   Mo16
_cell_volume   193.24869004
_cell_formula_units_Z   16
loop_
 _symmetry_equiv_pos_site_id
 _symmetry_equiv_pos_as_xyz
  1  'x, y, z'
loop_
 _atom_site_type_symbol
 _atom_site_label
 _atom_site_symmetry_multiplicity
 _atom_site_fract_x
 _atom_site_fract_y
 _atom_site_fract_z
 _atom_site_occupancy
  Mo  Mo0  1  -0.00312712  -0.01524610  0.00499692  1
  Mo  Mo1  1  1.83301000  1.87039000  -0.04156460  1
  Mo  Mo2  1  1.76562000  0.07523280  1.80946000  1
  Mo  Mo3  1  7.19789000  1.83814000  1.83377000  1
  Mo  Mo4  1  3.63008000  -0.04257850  3.55296000  1
  Mo  Mo5  1  5.49925000  1.73956000  3.68076000  1
  Mo  Mo6  1  5.46062000  -0.05044120  1.80039000  1
  Mo  Mo7  1  3.64604000  1.80710000  1.87956000  1
  Mo  Mo8  1  0.00656179  3.61455000  3.61971000  1
  Mo  Mo9  1  1.82505000  5.53392000  3.63610000  1
  Mo  Mo10  1  1.82502000  3.59112000  1.82903000  1
  Mo  Mo11  1  0.04431900  5.38053000  1.90128000  1
  Mo  Mo12  1  3.66337000  3.67187000  3.69681000  1
  Mo  Mo13  1  5.49049000  5.47362000  -0.05253290  1
  Mo  Mo14  1  5.42806000  3.72380000  1.82245000  1
  Mo  Mo15  1  3.62755000  5.44403000  1.78092000  1
