# generated using pymatgen
data_Mo
_symmetry_space_group_name_H-M   'P 1'
_cell_length_a   7.28420541
_cell_length_b   7.28420541
_cell_length_c   3.64210272
_cell_angle_alpha   90.00000000
_cell_angle_beta   90.00000000
_cell_angle_gamma   90.00000000
_symmetry_Int_Tables_number   1
_chemical_formula_structural   Mo
_chemical_formula_sum   Mo16
_cell_volume   193.24869004
_cell_formula_units_Z   16
loop_
 _symmetry_equiv_pos_site_id
 _symmetry_equiv_pos_as_xyz
  1  'x, y, z'
loop_
 _atom_site_type_symbol
 _atom_site_label
 _atom_site_symmetry_multiplicity
 _atom_site_fract_x
 _atom_site_fract_y
 _atom_site_fract_z
 _atom_site_occupancy
  Mo  Mo0  1  -0.00370951  -0.03222650  -0.00447793  1
  Mo  Mo1  1  1.80514000  1.86862000  0.03259450  1
  Mo  Mo2  1  1.83976000  0.00657542  1.82598000  1
  Mo  Mo3  1  7.20911000  1.90457000  1.83754000  1
  Mo  Mo4  1  3.67793000  0.00585374  3.64656000  1
  Mo  Mo5  1  5.43560000  1.73200000  3.68085000  1
  Mo  Mo6  1  5.48669000  -0.12370500  1.82757000  1
  Mo  Mo7  1  3.65412000  1.87057000  1.94834000  1
  Mo  Mo8  1  -0.02729450  3.68472000  3.60519000  1
  Mo  Mo9  1  1.82782000  5.47259000  3.57000000  1
  Mo  Mo10  1  1.76285000  3.57706000  1.84957000  1
  Mo  Mo11  1  0.09907350  5.42569000  1.80752000  1
  Mo  Mo12  1  3.61435000  3.67069000  3.59945000  1
  Mo  Mo13  1  5.47758000  5.47765000  -0.06234760  1
  Mo  Mo14  1  5.44841000  3.62823000  1.80536000  1
  Mo  Mo15  1  3.63237000  5.48671000  1.78440000  1
