# generated using pymatgen
data_Mo
_symmetry_space_group_name_H-M   'P 1'
_cell_length_a   7.28420541
_cell_length_b   7.28420541
_cell_length_c   3.64210272
_cell_angle_alpha   90.00000000
_cell_angle_beta   90.00000000
_cell_angle_gamma   90.00000000
_symmetry_Int_Tables_number   1
_chemical_formula_structural   Mo
_chemical_formula_sum   Mo16
_cell_volume   193.24869004
_cell_formula_units_Z   16
loop_
 _symmetry_equiv_pos_site_id
 _symmetry_equiv_pos_as_xyz
  1  'x, y, z'
loop_
 _atom_site_type_symbol
 _atom_site_label
 _atom_site_symmetry_multiplicity
 _atom_site_fract_x
 _atom_site_fract_y
 _atom_site_fract_z
 _atom_site_occupancy
  Mo  Mo0  1  -0.02374610  -0.05682990  0.01572080  1
  Mo  Mo1  1  1.74925000  1.83736000  0.05302270  1
  Mo  Mo2  1  1.85200000  -0.04685120  1.86037000  1
  Mo  Mo3  1  7.32762000  1.84185000  1.88284000  1
  Mo  Mo4  1  3.72775000  -0.06202660  3.67698000  1
  Mo  Mo5  1  5.47703000  1.82590000  3.63389000  1
  Mo  Mo6  1  5.47069000  0.05669570  1.84313000  1
  Mo  Mo7  1  3.57964000  1.84417000  1.88456000  1
  Mo  Mo8  1  -0.02358280  3.69698000  3.63397000  1
  Mo  Mo9  1  1.88011000  5.43189000  3.52592000  1
  Mo  Mo10  1  1.81779000  3.71078000  1.86504000  1
  Mo  Mo11  1  -0.03776360  5.46816000  1.75985000  1
  Mo  Mo12  1  3.62932000  3.67224000  3.59331000  1
  Mo  Mo13  1  5.42435000  5.45308000  -0.02010070  1
  Mo  Mo14  1  5.41434000  3.54791000  1.78614000  1
  Mo  Mo15  1  3.67502000  5.43427000  1.75945000  1
