# generated using pymatgen
data_Mo
_symmetry_space_group_name_H-M   'P 1'
_cell_length_a   7.28420541
_cell_length_b   7.28420541
_cell_length_c   3.64210272
_cell_angle_alpha   90.00000000
_cell_angle_beta   90.00000000
_cell_angle_gamma   90.00000000
_symmetry_Int_Tables_number   1
_chemical_formula_structural   Mo
_chemical_formula_sum   Mo16
_cell_volume   193.24869004
_cell_formula_units_Z   16
loop_
 _symmetry_equiv_pos_site_id
 _symmetry_equiv_pos_as_xyz
  1  'x, y, z'
loop_
 _atom_site_type_symbol
 _atom_site_label
 _atom_site_symmetry_multiplicity
 _atom_site_fract_x
 _atom_site_fract_y
 _atom_site_fract_z
 _atom_site_occupancy
  Mo  Mo0  1  0.00588492  -0.01252130  -0.01399190  1
  Mo  Mo1  1  1.77409000  1.80045000  -0.06445120  1
  Mo  Mo2  1  1.83121000  0.02695080  1.83563000  1
  Mo  Mo3  1  7.29489000  1.86818000  1.71103000  1
  Mo  Mo4  1  3.62411000  -0.00735606  3.61160000  1
  Mo  Mo5  1  5.42452000  1.82767000  3.64646000  1
  Mo  Mo6  1  5.45855000  -0.00167562  1.82994000  1
  Mo  Mo7  1  3.56506000  1.88964000  1.79663000  1
  Mo  Mo8  1  0.00481271  3.60681000  3.67184000  1
  Mo  Mo9  1  1.76434000  5.54686000  3.68641000  1
  Mo  Mo10  1  1.83743000  3.61446000  1.87007000  1
  Mo  Mo11  1  0.03602220  5.48512000  1.81813000  1
  Mo  Mo12  1  3.63478000  3.64318000  3.64294000  1
  Mo  Mo13  1  5.47786000  5.39363000  0.02003280  1
  Mo  Mo14  1  5.49023000  3.55419000  1.85484000  1
  Mo  Mo15  1  3.71600000  5.41999000  1.83699000  1
