# generated using pymatgen
data_Mo
_symmetry_space_group_name_H-M   'P 1'
_cell_length_a   7.28420541
_cell_length_b   7.28420541
_cell_length_c   3.64210272
_cell_angle_alpha   90.00000000
_cell_angle_beta   90.00000000
_cell_angle_gamma   90.00000000
_symmetry_Int_Tables_number   1
_chemical_formula_structural   Mo
_chemical_formula_sum   Mo16
_cell_volume   193.24869004
_cell_formula_units_Z   16
loop_
 _symmetry_equiv_pos_site_id
 _symmetry_equiv_pos_as_xyz
  1  'x, y, z'
loop_
 _atom_site_type_symbol
 _atom_site_label
 _atom_site_symmetry_multiplicity
 _atom_site_fract_x
 _atom_site_fract_y
 _atom_site_fract_z
 _atom_site_occupancy
  Mo  Mo0  1  0.00416063  0.04155210  0.05647610  1
  Mo  Mo1  1  1.82631000  1.83621000  0.00249822  1
  Mo  Mo2  1  1.78536000  0.02317300  1.83610000  1
  Mo  Mo3  1  7.27634000  1.79420000  1.82982000  1
  Mo  Mo4  1  3.65659000  0.01959470  3.63390000  1
  Mo  Mo5  1  5.43103000  1.84623000  3.67578000  1
  Mo  Mo6  1  5.53332000  -0.05102460  1.85759000  1
  Mo  Mo7  1  3.73170000  1.80365000  1.87847000  1
  Mo  Mo8  1  -0.00109808  3.58265000  3.55776000  1
  Mo  Mo9  1  1.78959000  5.34335000  3.61713000  1
  Mo  Mo10  1  1.83999000  3.57185000  1.81803000  1
  Mo  Mo11  1  0.04483180  5.50211000  1.79953000  1
  Mo  Mo12  1  3.57776000  3.64176000  3.64475000  1
  Mo  Mo13  1  5.46719000  5.52920000  -0.07388260  1
  Mo  Mo14  1  5.43933000  3.61112000  1.84864000  1
  Mo  Mo15  1  3.53739000  5.55996000  1.77152000  1
