# generated using pymatgen
data_Mo
_symmetry_space_group_name_H-M   'P 1'
_cell_length_a   7.28420541
_cell_length_b   7.28420541
_cell_length_c   3.64210272
_cell_angle_alpha   90.00000000
_cell_angle_beta   90.00000000
_cell_angle_gamma   90.00000000
_symmetry_Int_Tables_number   1
_chemical_formula_structural   Mo
_chemical_formula_sum   Mo16
_cell_volume   193.24869004
_cell_formula_units_Z   16
loop_
 _symmetry_equiv_pos_site_id
 _symmetry_equiv_pos_as_xyz
  1  'x, y, z'
loop_
 _atom_site_type_symbol
 _atom_site_label
 _atom_site_symmetry_multiplicity
 _atom_site_fract_x
 _atom_site_fract_y
 _atom_site_fract_z
 _atom_site_occupancy
  Mo  Mo0  1  -0.03436810  0.00915298  0.04876330  1
  Mo  Mo1  1  1.83053000  1.80346000  -0.00471172  1
  Mo  Mo2  1  1.80310000  -0.04359550  1.82099000  1
  Mo  Mo3  1  7.32867000  1.81874000  1.84170000  1
  Mo  Mo4  1  3.64156000  -0.11401000  3.60621000  1
  Mo  Mo5  1  5.48075000  1.94743000  3.62173000  1
  Mo  Mo6  1  5.40054000  0.03390790  1.82354000  1
  Mo  Mo7  1  3.67803000  1.79584000  1.86793000  1
  Mo  Mo8  1  0.06197640  3.60470000  3.54856000  1
  Mo  Mo9  1  1.76360000  5.41411000  3.62779000  1
  Mo  Mo10  1  1.83485000  3.66037000  1.79996000  1
  Mo  Mo11  1  -0.07630370  5.47814000  1.87488000  1
  Mo  Mo12  1  3.62925000  3.67155000  3.70296000  1
  Mo  Mo13  1  5.49676000  5.47352000  -0.02190240  1
  Mo  Mo14  1  5.49400000  3.62536000  1.81628000  1
  Mo  Mo15  1  3.60684000  5.47692000  1.77943000  1
