# generated using pymatgen
data_Mo
_symmetry_space_group_name_H-M   'P 1'
_cell_length_a   7.28420541
_cell_length_b   7.28420541
_cell_length_c   3.64210272
_cell_angle_alpha   90.00000000
_cell_angle_beta   90.00000000
_cell_angle_gamma   90.00000000
_symmetry_Int_Tables_number   1
_chemical_formula_structural   Mo
_chemical_formula_sum   Mo16
_cell_volume   193.24869004
_cell_formula_units_Z   16
loop_
 _symmetry_equiv_pos_site_id
 _symmetry_equiv_pos_as_xyz
  1  'x, y, z'
loop_
 _atom_site_type_symbol
 _atom_site_label
 _atom_site_symmetry_multiplicity
 _atom_site_fract_x
 _atom_site_fract_y
 _atom_site_fract_z
 _atom_site_occupancy
  Mo  Mo0  1  0.00090042  0.01838620  -0.05440030  1
  Mo  Mo1  1  1.84775000  1.76098000  -0.01360560  1
  Mo  Mo2  1  1.79661000  -0.10317000  1.77105000  1
  Mo  Mo3  1  7.29986000  1.80660000  1.74157000  1
  Mo  Mo4  1  3.58304000  0.07028040  3.63696000  1
  Mo  Mo5  1  5.50062000  1.85864000  3.60917000  1
  Mo  Mo6  1  5.45611000  0.01487930  1.81840000  1
  Mo  Mo7  1  3.63817000  1.81932000  1.80070000  1
  Mo  Mo8  1  0.00910248  3.68355000  3.73752000  1
  Mo  Mo9  1  1.81558000  5.46074000  3.68632000  1
  Mo  Mo10  1  1.83664000  3.68279000  1.80342000  1
  Mo  Mo11  1  -0.02549540  5.45121000  1.92203000  1
  Mo  Mo12  1  3.62623000  3.61380000  3.60852000  1
  Mo  Mo13  1  5.41940000  5.40043000  0.03073880  1
  Mo  Mo14  1  5.45625000  3.70606000  1.84712000  1
  Mo  Mo15  1  3.67903000  5.41108000  1.80859000  1
