# generated using pymatgen
data_Mo
_symmetry_space_group_name_H-M   'P 1'
_cell_length_a   7.28420541
_cell_length_b   7.28420541
_cell_length_c   3.64210272
_cell_angle_alpha   90.00000000
_cell_angle_beta   90.00000000
_cell_angle_gamma   90.00000000
_symmetry_Int_Tables_number   1
_chemical_formula_structural   Mo
_chemical_formula_sum   Mo16
_cell_volume   193.24869004
_cell_formula_units_Z   16
loop_
 _symmetry_equiv_pos_site_id
 _symmetry_equiv_pos_as_xyz
  1  'x, y, z'
loop_
 _atom_site_type_symbol
 _atom_site_label
 _atom_site_symmetry_multiplicity
 _atom_site_fract_x
 _atom_site_fract_y
 _atom_site_fract_z
 _atom_site_occupancy
  Mo  Mo0  1  0.02689990  -0.03013710  -0.07753790  1
  Mo  Mo1  1  1.77643000  1.86878000  0.04152120  1
  Mo  Mo2  1  1.80322000  -0.08350870  1.82001000  1
  Mo  Mo3  1  7.27602000  1.78983000  1.79568000  1
  Mo  Mo4  1  3.63466000  0.02693770  3.69284000  1
  Mo  Mo5  1  5.46512000  1.83375000  3.70819000  1
  Mo  Mo6  1  5.49577000  -0.00378970  1.83614000  1
  Mo  Mo7  1  3.58322000  1.86358000  1.91852000  1
  Mo  Mo8  1  -0.02129120  3.61224000  3.64340000  1
  Mo  Mo9  1  1.89121000  5.53563000  3.64054000  1
  Mo  Mo10  1  1.82487000  3.75500000  1.77314000  1
  Mo  Mo11  1  -0.04502040  5.47668000  1.83094000  1
  Mo  Mo12  1  3.62022000  3.59676000  3.60769000  1
  Mo  Mo13  1  5.43485000  5.39853000  -0.07236020  1
  Mo  Mo14  1  5.41434000  3.56642000  1.81440000  1
  Mo  Mo15  1  3.75929000  5.44888000  1.78099000  1
