# generated using pymatgen
data_Mo
_symmetry_space_group_name_H-M   'P 1'
_cell_length_a   7.28420541
_cell_length_b   7.28420541
_cell_length_c   3.64210272
_cell_angle_alpha   90.00000000
_cell_angle_beta   90.00000000
_cell_angle_gamma   90.00000000
_symmetry_Int_Tables_number   1
_chemical_formula_structural   Mo
_chemical_formula_sum   Mo16
_cell_volume   193.24869004
_cell_formula_units_Z   16
loop_
 _symmetry_equiv_pos_site_id
 _symmetry_equiv_pos_as_xyz
  1  'x, y, z'
loop_
 _atom_site_type_symbol
 _atom_site_label
 _atom_site_symmetry_multiplicity
 _atom_site_fract_x
 _atom_site_fract_y
 _atom_site_fract_z
 _atom_site_occupancy
  Mo  Mo0  1  0.04985240  0.01662890  0.02878010  1
  Mo  Mo1  1  1.86528000  1.83845000  0.03315320  1
  Mo  Mo2  1  1.86604000  0.04114930  1.73923000  1
  Mo  Mo3  1  7.22922000  1.78429000  1.80337000  1
  Mo  Mo4  1  3.70563000  0.04223900  3.61434000  1
  Mo  Mo5  1  5.43890000  1.78122000  3.67688000  1
  Mo  Mo6  1  5.50388000  -0.03830160  1.87166000  1
  Mo  Mo7  1  3.63163000  1.85541000  1.91017000  1
  Mo  Mo8  1  -0.07405120  3.63909000  3.61318000  1
  Mo  Mo9  1  1.70622000  5.41492000  3.72325000  1
  Mo  Mo10  1  1.79735000  3.59808000  1.79371000  1
  Mo  Mo11  1  0.02198720  5.48285000  1.86847000  1
  Mo  Mo12  1  3.64081000  3.65208000  3.63130000  1
  Mo  Mo13  1  5.50618000  5.39938000  -0.04976840  1
  Mo  Mo14  1  5.44401000  3.70218000  1.74324000  1
  Mo  Mo15  1  3.60687000  5.44592000  1.75314000  1
