# generated using pymatgen
data_Mo
_symmetry_space_group_name_H-M   'P 1'
_cell_length_a   7.27808089
_cell_length_b   7.27808089
_cell_length_c   3.63904047
_cell_angle_alpha   90.00000000
_cell_angle_beta   90.00000000
_cell_angle_gamma   90.00000000
_symmetry_Int_Tables_number   1
_chemical_formula_structural   Mo
_chemical_formula_sum   Mo16
_cell_volume   192.76165285
_cell_formula_units_Z   16
loop_
 _symmetry_equiv_pos_site_id
 _symmetry_equiv_pos_as_xyz
  1  'x, y, z'
loop_
 _atom_site_type_symbol
 _atom_site_label
 _atom_site_symmetry_multiplicity
 _atom_site_fract_x
 _atom_site_fract_y
 _atom_site_fract_z
 _atom_site_occupancy
  Mo  Mo0  1  -0.01355410  7.26639000  0.00651125  1
  Mo  Mo1  1  1.82160000  1.81410000  -0.00342000  1
  Mo  Mo2  1  1.82266000  7.29277000  1.82132000  1
  Mo  Mo3  1  7.27902000  1.81435000  1.81376000  1
  Mo  Mo4  1  3.63074000  7.27901000  3.63359000  1
  Mo  Mo5  1  5.45857000  1.81987000  0.00863637  1
  Mo  Mo6  1  5.45990000  0.01488410  1.83432000  1
  Mo  Mo7  1  3.63456000  1.81629000  1.81588000  1
  Mo  Mo8  1  7.28283000  3.63661000  3.64943000  1
  Mo  Mo9  1  1.81869000  5.45451000  3.63678000  1
  Mo  Mo10  1  1.81160000  3.62885000  1.81997000  1
  Mo  Mo11  1  7.28110000  5.46382000  1.82541000  1
  Mo  Mo12  1  3.64883000  3.63439000  -0.00047303  1
  Mo  Mo13  1  5.45817000  5.46673000  3.63267000  1
  Mo  Mo14  1  5.46033000  3.64847000  1.80385000  1
  Mo  Mo15  1  3.64702000  5.45105000  1.81377000  1
