# generated using pymatgen
data_Mo
_symmetry_space_group_name_H-M   'P 1'
_cell_length_a   7.28420541
_cell_length_b   7.28420541
_cell_length_c   3.64210272
_cell_angle_alpha   90.00000000
_cell_angle_beta   90.00000000
_cell_angle_gamma   90.00000000
_symmetry_Int_Tables_number   1
_chemical_formula_structural   Mo
_chemical_formula_sum   Mo16
_cell_volume   193.24869004
_cell_formula_units_Z   16
loop_
 _symmetry_equiv_pos_site_id
 _symmetry_equiv_pos_as_xyz
  1  'x, y, z'
loop_
 _atom_site_type_symbol
 _atom_site_label
 _atom_site_symmetry_multiplicity
 _atom_site_fract_x
 _atom_site_fract_y
 _atom_site_fract_z
 _atom_site_occupancy
  Mo  Mo0  1  0.00997280  -0.02826140  0.00550301  1
  Mo  Mo1  1  1.74135000  1.87051000  0.02488640  1
  Mo  Mo2  1  1.79280000  -0.04688770  1.84472000  1
  Mo  Mo3  1  7.34065000  1.73479000  1.88417000  1
  Mo  Mo4  1  3.63903000  0.03269700  3.64684000  1
  Mo  Mo5  1  5.52544000  1.79403000  3.62533000  1
  Mo  Mo6  1  5.45499000  -0.03240370  1.83087000  1
  Mo  Mo7  1  3.61816000  1.80558000  1.81479000  1
  Mo  Mo8  1  -0.05622250  3.62909000  3.68491000  1
  Mo  Mo9  1  1.87627000  5.52685000  3.54506000  1
  Mo  Mo10  1  1.84215000  3.71802000  1.78399000  1
  Mo  Mo11  1  -0.02658340  5.45671000  1.82333000  1
  Mo  Mo12  1  3.66524000  3.58530000  3.59735000  1
  Mo  Mo13  1  5.42903000  5.50223000  -0.04073510  1
  Mo  Mo14  1  5.40687000  3.63239000  1.90252000  1
  Mo  Mo15  1  3.68066000  5.47494000  1.78057000  1
