# generated using pymatgen
data_Mo
_symmetry_space_group_name_H-M   'P 1'
_cell_length_a   7.28420541
_cell_length_b   7.28420541
_cell_length_c   3.64210272
_cell_angle_alpha   90.00000000
_cell_angle_beta   90.00000000
_cell_angle_gamma   90.00000000
_symmetry_Int_Tables_number   1
_chemical_formula_structural   Mo
_chemical_formula_sum   Mo16
_cell_volume   193.24869004
_cell_formula_units_Z   16
loop_
 _symmetry_equiv_pos_site_id
 _symmetry_equiv_pos_as_xyz
  1  'x, y, z'
loop_
 _atom_site_type_symbol
 _atom_site_label
 _atom_site_symmetry_multiplicity
 _atom_site_fract_x
 _atom_site_fract_y
 _atom_site_fract_z
 _atom_site_occupancy
  Mo  Mo0  1  -0.00849297  -0.01143330  0.05089040  1
  Mo  Mo1  1  1.84509000  1.75384000  -0.01203010  1
  Mo  Mo2  1  1.83799000  -0.03381770  1.87171000  1
  Mo  Mo3  1  7.34264000  1.81875000  1.77123000  1
  Mo  Mo4  1  3.64669000  0.02638440  3.62737000  1
  Mo  Mo5  1  5.51146000  1.82230000  3.72219000  1
  Mo  Mo6  1  5.47570000  0.04159840  1.84555000  1
  Mo  Mo7  1  3.65658000  1.84450000  1.86511000  1
  Mo  Mo8  1  -0.01984270  3.69653000  3.63251000  1
  Mo  Mo9  1  1.77900000  5.41440000  3.61698000  1
  Mo  Mo10  1  1.86717000  3.59104000  1.84584000  1
  Mo  Mo11  1  -0.04858830  5.51193000  1.80908000  1
  Mo  Mo12  1  3.60585000  3.65638000  3.59880000  1
  Mo  Mo13  1  5.39192000  5.46852000  -0.06920000  1
  Mo  Mo14  1  5.42111000  3.63945000  1.81222000  1
  Mo  Mo15  1  3.63554000  5.41522000  1.76586000  1
