# generated using pymatgen
data_Mo
_symmetry_space_group_name_H-M   'P 1'
_cell_length_a   7.28420541
_cell_length_b   7.28420541
_cell_length_c   3.64210272
_cell_angle_alpha   90.00000000
_cell_angle_beta   90.00000000
_cell_angle_gamma   90.00000000
_symmetry_Int_Tables_number   1
_chemical_formula_structural   Mo
_chemical_formula_sum   Mo16
_cell_volume   193.24869004
_cell_formula_units_Z   16
loop_
 _symmetry_equiv_pos_site_id
 _symmetry_equiv_pos_as_xyz
  1  'x, y, z'
loop_
 _atom_site_type_symbol
 _atom_site_label
 _atom_site_symmetry_multiplicity
 _atom_site_fract_x
 _atom_site_fract_y
 _atom_site_fract_z
 _atom_site_occupancy
  Mo  Mo0  1  0.04279060  0.01141010  -0.03296180  1
  Mo  Mo1  1  1.78313000  1.78465000  0.08209250  1
  Mo  Mo2  1  1.79428000  0.03285960  1.77812000  1
  Mo  Mo3  1  7.32296000  1.74555000  1.88900000  1
  Mo  Mo4  1  3.58259000  0.06300670  3.74479000  1
  Mo  Mo5  1  5.42802000  1.83218000  3.67508000  1
  Mo  Mo6  1  5.41560000  0.02954070  1.78265000  1
  Mo  Mo7  1  3.55672000  1.81220000  1.84210000  1
  Mo  Mo8  1  -0.01393880  3.69154000  3.65430000  1
  Mo  Mo9  1  1.86176000  5.44253000  3.59074000  1
  Mo  Mo10  1  1.86733000  3.66921000  1.77881000  1
  Mo  Mo11  1  -0.05574160  5.49939000  1.73248000  1
  Mo  Mo12  1  3.67462000  3.64022000  3.60478000  1
  Mo  Mo13  1  5.52639000  5.38842000  0.01398340  1
  Mo  Mo14  1  5.45354000  3.55351000  1.76732000  1
  Mo  Mo15  1  3.69974000  5.45936000  1.85083000  1
