# generated using pymatgen
data_Mo
_symmetry_space_group_name_H-M   'P 1'
_cell_length_a   7.28420541
_cell_length_b   7.28420541
_cell_length_c   3.64210272
_cell_angle_alpha   90.00000000
_cell_angle_beta   90.00000000
_cell_angle_gamma   90.00000000
_symmetry_Int_Tables_number   1
_chemical_formula_structural   Mo
_chemical_formula_sum   Mo16
_cell_volume   193.24869004
_cell_formula_units_Z   16
loop_
 _symmetry_equiv_pos_site_id
 _symmetry_equiv_pos_as_xyz
  1  'x, y, z'
loop_
 _atom_site_type_symbol
 _atom_site_label
 _atom_site_symmetry_multiplicity
 _atom_site_fract_x
 _atom_site_fract_y
 _atom_site_fract_z
 _atom_site_occupancy
  Mo  Mo0  1  0.05644890  -0.06589460  0.06177430  1
  Mo  Mo1  1  1.81599000  1.80890000  -0.07271080  1
  Mo  Mo2  1  1.82209000  -0.07471620  1.80366000  1
  Mo  Mo3  1  7.34667000  1.76466000  1.77644000  1
  Mo  Mo4  1  3.65574000  -0.00300892  3.66630000  1
  Mo  Mo5  1  5.42822000  1.92265000  3.60930000  1
  Mo  Mo6  1  5.43656000  0.02191460  1.81814000  1
  Mo  Mo7  1  3.56394000  1.85671000  1.74773000  1
  Mo  Mo8  1  -0.09043720  3.64558000  3.58729000  1
  Mo  Mo9  1  1.82414000  5.42303000  3.69121000  1
  Mo  Mo10  1  1.75757000  3.68877000  1.79625000  1
  Mo  Mo11  1  -0.03306190  5.45625000  1.86543000  1
  Mo  Mo12  1  3.69108000  3.62221000  3.70386000  1
  Mo  Mo13  1  5.48434000  5.45220000  0.03835640  1
  Mo  Mo14  1  5.48536000  3.62054000  1.82074000  1
  Mo  Mo15  1  3.69514000  5.51580000  1.84033000  1
