# generated using pymatgen
data_Mo
_symmetry_space_group_name_H-M   'P 1'
_cell_length_a   7.28420541
_cell_length_b   7.28420541
_cell_length_c   3.64210272
_cell_angle_alpha   90.00000000
_cell_angle_beta   90.00000000
_cell_angle_gamma   90.00000000
_symmetry_Int_Tables_number   1
_chemical_formula_structural   Mo
_chemical_formula_sum   Mo16
_cell_volume   193.24869004
_cell_formula_units_Z   16
loop_
 _symmetry_equiv_pos_site_id
 _symmetry_equiv_pos_as_xyz
  1  'x, y, z'
loop_
 _atom_site_type_symbol
 _atom_site_label
 _atom_site_symmetry_multiplicity
 _atom_site_fract_x
 _atom_site_fract_y
 _atom_site_fract_z
 _atom_site_occupancy
  Mo  Mo0  1  -0.04256750  -0.10939200  0.02762110  1
  Mo  Mo1  1  1.76898000  1.93771000  -0.07690700  1
  Mo  Mo2  1  1.81215000  -0.08315170  1.73949000  1
  Mo  Mo3  1  7.32489000  1.79551000  1.76842000  1
  Mo  Mo4  1  3.63837000  0.06602430  3.62139000  1
  Mo  Mo5  1  5.50800000  1.79880000  3.62209000  1
  Mo  Mo6  1  5.39438000  -0.07094650  1.88172000  1
  Mo  Mo7  1  3.62082000  1.81169000  1.80286000  1
  Mo  Mo8  1  -0.03077400  3.67202000  3.65659000  1
  Mo  Mo9  1  1.85293000  5.51690000  3.68285000  1
  Mo  Mo10  1  1.84636000  3.73599000  1.85210000  1
  Mo  Mo11  1  -0.02007590  5.40447000  1.86865000  1
  Mo  Mo12  1  3.67576000  3.56612000  3.68687000  1
  Mo  Mo13  1  5.44081000  5.48416000  -0.02755310  1
  Mo  Mo14  1  5.46752000  3.62034000  1.82614000  1
  Mo  Mo15  1  3.68225000  5.50935000  1.82177000  1
