# generated using pymatgen
data_Mo
_symmetry_space_group_name_H-M   'P 1'
_cell_length_a   7.28420541
_cell_length_b   7.28420541
_cell_length_c   3.64210272
_cell_angle_alpha   90.00000000
_cell_angle_beta   90.00000000
_cell_angle_gamma   90.00000000
_symmetry_Int_Tables_number   1
_chemical_formula_structural   Mo
_chemical_formula_sum   Mo16
_cell_volume   193.24869004
_cell_formula_units_Z   16
loop_
 _symmetry_equiv_pos_site_id
 _symmetry_equiv_pos_as_xyz
  1  'x, y, z'
loop_
 _atom_site_type_symbol
 _atom_site_label
 _atom_site_symmetry_multiplicity
 _atom_site_fract_x
 _atom_site_fract_y
 _atom_site_fract_z
 _atom_site_occupancy
  Mo  Mo0  1  -0.04081830  -0.02461600  -0.08203410  1
  Mo  Mo1  1  1.85129000  1.88817000  -0.01191290  1
  Mo  Mo2  1  1.75048000  -0.02958100  1.81576000  1
  Mo  Mo3  1  7.18262000  1.89662000  1.83711000  1
  Mo  Mo4  1  3.66708000  -0.09666250  3.69088000  1
  Mo  Mo5  1  5.46232000  1.83152000  3.56241000  1
  Mo  Mo6  1  5.43289000  -0.04048680  1.77411000  1
  Mo  Mo7  1  3.69743000  1.80374000  1.76276000  1
  Mo  Mo8  1  0.03951200  3.68374000  3.69017000  1
  Mo  Mo9  1  1.81644000  5.53881000  3.63041000  1
  Mo  Mo10  1  1.82653000  3.60900000  1.82264000  1
  Mo  Mo11  1  0.05799620  5.44740000  1.83743000  1
  Mo  Mo12  1  3.67726000  3.58695000  3.65336000  1
  Mo  Mo13  1  5.49097000  5.46592000  0.06737720  1
  Mo  Mo14  1  5.42459000  3.69091000  1.78734000  1
  Mo  Mo15  1  3.60320000  5.40416000  1.91631000  1
