# generated using pymatgen
data_Mo
_symmetry_space_group_name_H-M   'P 1'
_cell_length_a   7.28420541
_cell_length_b   7.28420541
_cell_length_c   3.64210272
_cell_angle_alpha   90.00000000
_cell_angle_beta   90.00000000
_cell_angle_gamma   90.00000000
_symmetry_Int_Tables_number   1
_chemical_formula_structural   Mo
_chemical_formula_sum   Mo16
_cell_volume   193.24869004
_cell_formula_units_Z   16
loop_
 _symmetry_equiv_pos_site_id
 _symmetry_equiv_pos_as_xyz
  1  'x, y, z'
loop_
 _atom_site_type_symbol
 _atom_site_label
 _atom_site_symmetry_multiplicity
 _atom_site_fract_x
 _atom_site_fract_y
 _atom_site_fract_z
 _atom_site_occupancy
  Mo  Mo0  1  0.01080660  0.05103800  0.03280980  1
  Mo  Mo1  1  1.84756000  1.79711000  -0.01554240  1
  Mo  Mo2  1  1.79087000  0.04959370  1.82023000  1
  Mo  Mo3  1  7.31584000  1.77730000  1.86964000  1
  Mo  Mo4  1  3.61471000  0.01680430  3.61718000  1
  Mo  Mo5  1  5.46786000  1.85338000  3.67088000  1
  Mo  Mo6  1  5.40537000  0.04196050  1.79206000  1
  Mo  Mo7  1  3.56510000  1.75994000  1.85870000  1
  Mo  Mo8  1  -0.01705670  3.64895000  3.60523000  1
  Mo  Mo9  1  1.84590000  5.51809000  3.60119000  1
  Mo  Mo10  1  1.79444000  3.64194000  1.84058000  1
  Mo  Mo11  1  -0.02626660  5.45709000  1.84784000  1
  Mo  Mo12  1  3.68079000  3.59036000  3.71320000  1
  Mo  Mo13  1  5.49663000  5.38458000  -0.09449530  1
  Mo  Mo14  1  5.50191000  3.60441000  1.83018000  1
  Mo  Mo15  1  3.64531000  5.46304000  1.76445000  1
