# generated using pymatgen
data_Mo
_symmetry_space_group_name_H-M   'P 1'
_cell_length_a   7.28420541
_cell_length_b   7.28420541
_cell_length_c   3.64210272
_cell_angle_alpha   90.00000000
_cell_angle_beta   90.00000000
_cell_angle_gamma   90.00000000
_symmetry_Int_Tables_number   1
_chemical_formula_structural   Mo
_chemical_formula_sum   Mo16
_cell_volume   193.24869004
_cell_formula_units_Z   16
loop_
 _symmetry_equiv_pos_site_id
 _symmetry_equiv_pos_as_xyz
  1  'x, y, z'
loop_
 _atom_site_type_symbol
 _atom_site_label
 _atom_site_symmetry_multiplicity
 _atom_site_fract_x
 _atom_site_fract_y
 _atom_site_fract_z
 _atom_site_occupancy
  Mo  Mo0  1  0.01957090  0.02344370  -0.03150740  1
  Mo  Mo1  1  1.84444000  1.81442000  -0.02724190  1
  Mo  Mo2  1  1.80147000  0.01844480  1.82980000  1
  Mo  Mo3  1  7.26408000  1.84382000  1.80447000  1
  Mo  Mo4  1  3.63902000  0.01680890  3.61062000  1
  Mo  Mo5  1  5.39203000  1.78221000  3.72711000  1
  Mo  Mo6  1  5.52057000  -0.06819120  1.83665000  1
  Mo  Mo7  1  3.57322000  1.88864000  1.92464000  1
  Mo  Mo8  1  -0.02817430  3.58079000  3.61195000  1
  Mo  Mo9  1  1.78386000  5.59491000  3.62944000  1
  Mo  Mo10  1  1.78080000  3.56440000  1.85020000  1
  Mo  Mo11  1  0.09898550  5.48341000  1.82040000  1
  Mo  Mo12  1  3.63204000  3.65953000  3.60322000  1
  Mo  Mo13  1  5.51749000  5.41238000  -0.07697620  1
  Mo  Mo14  1  5.43375000  3.57772000  1.82460000  1
  Mo  Mo15  1  3.66664000  5.46285000  1.81673000  1
