# generated using pymatgen
data_Mo
_symmetry_space_group_name_H-M   'P 1'
_cell_length_a   7.28420541
_cell_length_b   7.28420541
_cell_length_c   3.64210272
_cell_angle_alpha   90.00000000
_cell_angle_beta   90.00000000
_cell_angle_gamma   90.00000000
_symmetry_Int_Tables_number   1
_chemical_formula_structural   Mo
_chemical_formula_sum   Mo16
_cell_volume   193.24869004
_cell_formula_units_Z   16
loop_
 _symmetry_equiv_pos_site_id
 _symmetry_equiv_pos_as_xyz
  1  'x, y, z'
loop_
 _atom_site_type_symbol
 _atom_site_label
 _atom_site_symmetry_multiplicity
 _atom_site_fract_x
 _atom_site_fract_y
 _atom_site_fract_z
 _atom_site_occupancy
  Mo  Mo0  1  0.01307820  -0.02181720  0.02474620  1
  Mo  Mo1  1  1.86295000  1.80138000  -0.01872060  1
  Mo  Mo2  1  1.78928000  0.09275270  1.83043000  1
  Mo  Mo3  1  7.32565000  1.77391000  1.82799000  1
  Mo  Mo4  1  3.55069000  -0.02008880  3.65607000  1
  Mo  Mo5  1  5.40151000  1.73761000  3.73177000  1
  Mo  Mo6  1  5.45457000  -0.00944674  1.81481000  1
  Mo  Mo7  1  3.64646000  1.84555000  1.78630000  1
  Mo  Mo8  1  -0.00594857  3.62462000  3.65641000  1
  Mo  Mo9  1  1.83410000  5.47969000  3.58993000  1
  Mo  Mo10  1  1.82788000  3.67316000  1.83903000  1
  Mo  Mo11  1  -0.04387090  5.46306000  1.77434000  1
  Mo  Mo12  1  3.67670000  3.69199000  3.63254000  1
  Mo  Mo13  1  5.50242000  5.46658000  0.03522570  1
  Mo  Mo14  1  5.45435000  3.59832000  1.80768000  1
  Mo  Mo15  1  3.64998000  5.45832000  1.76554000  1
