# generated using pymatgen
data_Mo
_symmetry_space_group_name_H-M   'P 1'
_cell_length_a   7.28420541
_cell_length_b   7.28420541
_cell_length_c   3.64210272
_cell_angle_alpha   90.00000000
_cell_angle_beta   90.00000000
_cell_angle_gamma   90.00000000
_symmetry_Int_Tables_number   1
_chemical_formula_structural   Mo
_chemical_formula_sum   Mo16
_cell_volume   193.24869004
_cell_formula_units_Z   16
loop_
 _symmetry_equiv_pos_site_id
 _symmetry_equiv_pos_as_xyz
  1  'x, y, z'
loop_
 _atom_site_type_symbol
 _atom_site_label
 _atom_site_symmetry_multiplicity
 _atom_site_fract_x
 _atom_site_fract_y
 _atom_site_fract_z
 _atom_site_occupancy
  Mo  Mo0  1  0.03917460  0.01489830  -0.00326632  1
  Mo  Mo1  1  1.84460000  1.77956000  -0.04245550  1
  Mo  Mo2  1  1.83686000  0.05622230  1.90252000  1
  Mo  Mo3  1  7.27318000  1.80554000  1.75913000  1
  Mo  Mo4  1  3.60893000  -0.08380530  3.66109000  1
  Mo  Mo5  1  5.43095000  1.83693000  3.62989000  1
  Mo  Mo6  1  5.48714000  -0.04302130  1.81293000  1
  Mo  Mo7  1  3.72261000  1.81780000  1.84198000  1
  Mo  Mo8  1  -0.07251580  3.63020000  3.61342000  1
  Mo  Mo9  1  1.82806000  5.46097000  3.60940000  1
  Mo  Mo10  1  1.74540000  3.60119000  1.89524000  1
  Mo  Mo11  1  -0.00973924  5.46863000  1.84908000  1
  Mo  Mo12  1  3.64035000  3.67567000  3.64681000  1
  Mo  Mo13  1  5.50582000  5.51737000  -0.02862760  1
  Mo  Mo14  1  5.43074000  3.70324000  1.80566000  1
  Mo  Mo15  1  3.62823000  5.41421000  1.80129000  1
