# generated using pymatgen
data_Mo
_symmetry_space_group_name_H-M   'P 1'
_cell_length_a   7.27808089
_cell_length_b   7.27808089
_cell_length_c   3.63904047
_cell_angle_alpha   90.00000000
_cell_angle_beta   90.00000000
_cell_angle_gamma   90.00000000
_symmetry_Int_Tables_number   1
_chemical_formula_structural   Mo
_chemical_formula_sum   Mo16
_cell_volume   192.76165285
_cell_formula_units_Z   16
loop_
 _symmetry_equiv_pos_site_id
 _symmetry_equiv_pos_as_xyz
  1  'x, y, z'
loop_
 _atom_site_type_symbol
 _atom_site_label
 _atom_site_symmetry_multiplicity
 _atom_site_fract_x
 _atom_site_fract_y
 _atom_site_fract_z
 _atom_site_occupancy
  Mo  Mo0  1  -0.00904269  7.26658000  -0.00164600  1
  Mo  Mo1  1  1.81935000  1.81731000  0.00044134  1
  Mo  Mo2  1  1.82875000  7.26557000  1.83087000  1
  Mo  Mo3  1  7.27638000  1.81795000  1.82191000  1
  Mo  Mo4  1  3.62449000  7.27393000  3.63389000  1
  Mo  Mo5  1  5.46219000  1.83319000  0.00149592  1
  Mo  Mo6  1  5.45629000  0.00471653  1.81370000  1
  Mo  Mo7  1  3.63327000  1.81913000  1.81403000  1
  Mo  Mo8  1  7.28256000  3.64456000  3.64357000  1
  Mo  Mo9  1  1.82594000  5.46357000  3.63396000  1
  Mo  Mo10  1  1.81383000  3.63679000  1.80651000  1
  Mo  Mo11  1  7.29591000  5.45469000  1.81966000  1
  Mo  Mo12  1  3.64529000  3.64648000  0.00110524  1
  Mo  Mo13  1  5.46318000  5.46871000  3.64228000  1
  Mo  Mo14  1  5.44828000  3.63929000  1.82040000  1
  Mo  Mo15  1  3.63541000  5.44965000  1.82983000  1
