# generated using pymatgen
data_Mo
_symmetry_space_group_name_H-M   'P 1'
_cell_length_a   7.28420541
_cell_length_b   7.28420541
_cell_length_c   3.64210272
_cell_angle_alpha   90.00000000
_cell_angle_beta   90.00000000
_cell_angle_gamma   90.00000000
_symmetry_Int_Tables_number   1
_chemical_formula_structural   Mo
_chemical_formula_sum   Mo16
_cell_volume   193.24869004
_cell_formula_units_Z   16
loop_
 _symmetry_equiv_pos_site_id
 _symmetry_equiv_pos_as_xyz
  1  'x, y, z'
loop_
 _atom_site_type_symbol
 _atom_site_label
 _atom_site_symmetry_multiplicity
 _atom_site_fract_x
 _atom_site_fract_y
 _atom_site_fract_z
 _atom_site_occupancy
  Mo  Mo0  1  0.00446486  -0.02542360  0.06188910  1
  Mo  Mo1  1  1.83752000  1.91426000  0.00904149  1
  Mo  Mo2  1  1.83085000  0.06600970  1.88162000  1
  Mo  Mo3  1  7.24679000  1.81159000  1.89423000  1
  Mo  Mo4  1  3.63833000  -0.00031661  3.67577000  1
  Mo  Mo5  1  5.42228000  1.83135000  3.67739000  1
  Mo  Mo6  1  5.48639000  -0.06667960  1.84227000  1
  Mo  Mo7  1  3.72919000  1.89953000  1.76273000  1
  Mo  Mo8  1  -0.00870466  3.57567000  3.63687000  1
  Mo  Mo9  1  1.80833000  5.47109000  3.52906000  1
  Mo  Mo10  1  1.73729000  3.61212000  1.82107000  1
  Mo  Mo11  1  0.02856080  5.41843000  1.75023000  1
  Mo  Mo12  1  3.59349000  3.62906000  3.61266000  1
  Mo  Mo13  1  5.52239000  5.49987000  -0.00395809  1
  Mo  Mo14  1  5.45588000  3.59249000  1.80725000  1
  Mo  Mo15  1  3.60675000  5.42653000  1.79599000  1
