# generated using pymatgen
data_Mo
_symmetry_space_group_name_H-M   'P 1'
_cell_length_a   7.28420541
_cell_length_b   7.28420541
_cell_length_c   3.64210272
_cell_angle_alpha   90.00000000
_cell_angle_beta   90.00000000
_cell_angle_gamma   90.00000000
_symmetry_Int_Tables_number   1
_chemical_formula_structural   Mo
_chemical_formula_sum   Mo16
_cell_volume   193.24869004
_cell_formula_units_Z   16
loop_
 _symmetry_equiv_pos_site_id
 _symmetry_equiv_pos_as_xyz
  1  'x, y, z'
loop_
 _atom_site_type_symbol
 _atom_site_label
 _atom_site_symmetry_multiplicity
 _atom_site_fract_x
 _atom_site_fract_y
 _atom_site_fract_z
 _atom_site_occupancy
  Mo  Mo0  1  -0.01085390  -0.13663700  -0.01371050  1
  Mo  Mo1  1  1.79601000  1.82487000  0.01463770  1
  Mo  Mo2  1  1.80159000  0.05253640  1.79100000  1
  Mo  Mo3  1  7.26994000  1.79324000  1.89902000  1
  Mo  Mo4  1  3.62977000  0.08912280  3.62407000  1
  Mo  Mo5  1  5.46590000  1.68140000  3.66178000  1
  Mo  Mo6  1  5.48984000  -0.02264470  1.80703000  1
  Mo  Mo7  1  3.59788000  1.83759000  1.74373000  1
  Mo  Mo8  1  0.03282720  3.74654000  3.67428000  1
  Mo  Mo9  1  1.85694000  5.43592000  3.61808000  1
  Mo  Mo10  1  1.83595000  3.70752000  1.79278000  1
  Mo  Mo11  1  -0.07277870  5.46040000  1.78316000  1
  Mo  Mo12  1  3.65807000  3.67540000  3.59558000  1
  Mo  Mo13  1  5.40739000  5.43038000  0.10479600  1
  Mo  Mo14  1  5.47607000  3.58244000  1.81364000  1
  Mo  Mo15  1  3.70526000  5.49752000  1.84423000  1
