# generated using pymatgen
data_Mo
_symmetry_space_group_name_H-M   'P 1'
_cell_length_a   7.28420541
_cell_length_b   7.28420541
_cell_length_c   3.64210272
_cell_angle_alpha   90.00000000
_cell_angle_beta   90.00000000
_cell_angle_gamma   90.00000000
_symmetry_Int_Tables_number   1
_chemical_formula_structural   Mo
_chemical_formula_sum   Mo16
_cell_volume   193.24869004
_cell_formula_units_Z   16
loop_
 _symmetry_equiv_pos_site_id
 _symmetry_equiv_pos_as_xyz
  1  'x, y, z'
loop_
 _atom_site_type_symbol
 _atom_site_label
 _atom_site_symmetry_multiplicity
 _atom_site_fract_x
 _atom_site_fract_y
 _atom_site_fract_z
 _atom_site_occupancy
  Mo  Mo0  1  0.03089650  0.03586250  0.00442955  1
  Mo  Mo1  1  1.79662000  1.72675000  0.08584820  1
  Mo  Mo2  1  1.81673000  0.07587640  1.85450000  1
  Mo  Mo3  1  7.23824000  1.80424000  1.94968000  1
  Mo  Mo4  1  3.67025000  -0.05788430  3.69270000  1
  Mo  Mo5  1  5.44860000  1.86554000  3.66886000  1
  Mo  Mo6  1  5.49341000  0.02155700  1.84016000  1
  Mo  Mo7  1  3.71823000  1.78374000  1.81942000  1
  Mo  Mo8  1  -0.04671410  3.61742000  3.58476000  1
  Mo  Mo9  1  1.80327000  5.47257000  3.56168000  1
  Mo  Mo10  1  1.81354000  3.56757000  1.84315000  1
  Mo  Mo11  1  0.03825660  5.47367000  1.72733000  1
  Mo  Mo12  1  3.66254000  3.64053000  3.60210000  1
  Mo  Mo13  1  5.48985000  5.50313000  -0.03965640  1
  Mo  Mo14  1  5.44022000  3.71602000  1.73955000  1
  Mo  Mo15  1  3.52587000  5.40899000  1.81962000  1
