# generated using pymatgen
data_Mo
_symmetry_space_group_name_H-M   'P 1'
_cell_length_a   7.28420541
_cell_length_b   7.28420541
_cell_length_c   3.64210272
_cell_angle_alpha   90.00000000
_cell_angle_beta   90.00000000
_cell_angle_gamma   90.00000000
_symmetry_Int_Tables_number   1
_chemical_formula_structural   Mo
_chemical_formula_sum   Mo16
_cell_volume   193.24869004
_cell_formula_units_Z   16
loop_
 _symmetry_equiv_pos_site_id
 _symmetry_equiv_pos_as_xyz
  1  'x, y, z'
loop_
 _atom_site_type_symbol
 _atom_site_label
 _atom_site_symmetry_multiplicity
 _atom_site_fract_x
 _atom_site_fract_y
 _atom_site_fract_z
 _atom_site_occupancy
  Mo  Mo0  1  -0.01297530  -0.03747710  0.03854190  1
  Mo  Mo1  1  1.79164000  1.78548000  -0.06888690  1
  Mo  Mo2  1  1.81401000  0.04425790  1.84601000  1
  Mo  Mo3  1  7.33207000  1.78883000  1.78507000  1
  Mo  Mo4  1  3.63441000  0.06456910  3.68959000  1
  Mo  Mo5  1  5.44384000  1.77939000  3.69046000  1
  Mo  Mo6  1  5.46688000  0.05361350  1.78892000  1
  Mo  Mo7  1  3.55046000  1.82918000  1.83220000  1
  Mo  Mo8  1  -0.03612580  3.69662000  3.60730000  1
  Mo  Mo9  1  1.84150000  5.49549000  3.65970000  1
  Mo  Mo10  1  1.85175000  3.70857000  1.81755000  1
  Mo  Mo11  1  -0.04924840  5.41784000  1.73417000  1
  Mo  Mo12  1  3.68604000  3.67294000  3.68891000  1
  Mo  Mo13  1  5.47794000  5.36914000  -0.01062520  1
  Mo  Mo14  1  5.44829000  3.53661000  1.82490000  1
  Mo  Mo15  1  3.69930000  5.45053000  1.83029000  1
