# generated using pymatgen
data_Mo
_symmetry_space_group_name_H-M   'P 1'
_cell_length_a   7.28420541
_cell_length_b   7.28420541
_cell_length_c   3.64210272
_cell_angle_alpha   90.00000000
_cell_angle_beta   90.00000000
_cell_angle_gamma   90.00000000
_symmetry_Int_Tables_number   1
_chemical_formula_structural   Mo
_chemical_formula_sum   Mo16
_cell_volume   193.24869004
_cell_formula_units_Z   16
loop_
 _symmetry_equiv_pos_site_id
 _symmetry_equiv_pos_as_xyz
  1  'x, y, z'
loop_
 _atom_site_type_symbol
 _atom_site_label
 _atom_site_symmetry_multiplicity
 _atom_site_fract_x
 _atom_site_fract_y
 _atom_site_fract_z
 _atom_site_occupancy
  Mo  Mo0  1  0.00181722  0.01132690  0.02515320  1
  Mo  Mo1  1  1.76887000  1.85164000  -0.03557870  1
  Mo  Mo2  1  1.88325000  0.00002122  1.75152000  1
  Mo  Mo3  1  7.27947000  1.76918000  1.78044000  1
  Mo  Mo4  1  3.71609000  -0.02418800  3.59176000  1
  Mo  Mo5  1  5.43361000  1.78494000  3.65927000  1
  Mo  Mo6  1  5.39661000  0.01888550  1.74702000  1
  Mo  Mo7  1  3.61585000  1.76766000  1.85998000  1
  Mo  Mo8  1  0.00115171  3.65531000  3.59755000  1
  Mo  Mo9  1  1.88204000  5.42609000  3.68818000  1
  Mo  Mo10  1  1.79455000  3.74167000  1.81396000  1
  Mo  Mo11  1  -0.03814350  5.46263000  1.89806000  1
  Mo  Mo12  1  3.59801000  3.70427000  3.72556000  1
  Mo  Mo13  1  5.49036000  5.43860000  0.01370340  1
  Mo  Mo14  1  5.43558000  3.53635000  1.82563000  1
  Mo  Mo15  1  3.68069000  5.51121000  1.81190000  1
