# generated using pymatgen
data_Mo
_symmetry_space_group_name_H-M   'P 1'
_cell_length_a   7.28420541
_cell_length_b   7.28420541
_cell_length_c   3.64210272
_cell_angle_alpha   90.00000000
_cell_angle_beta   90.00000000
_cell_angle_gamma   90.00000000
_symmetry_Int_Tables_number   1
_chemical_formula_structural   Mo
_chemical_formula_sum   Mo16
_cell_volume   193.24869004
_cell_formula_units_Z   16
loop_
 _symmetry_equiv_pos_site_id
 _symmetry_equiv_pos_as_xyz
  1  'x, y, z'
loop_
 _atom_site_type_symbol
 _atom_site_label
 _atom_site_symmetry_multiplicity
 _atom_site_fract_x
 _atom_site_fract_y
 _atom_site_fract_z
 _atom_site_occupancy
  Mo  Mo0  1  0.06331800  0.06832120  0.00203948  1
  Mo  Mo1  1  1.80841000  1.87809000  0.06427410  1
  Mo  Mo2  1  1.84083000  -0.01596200  1.83320000  1
  Mo  Mo3  1  7.30632000  1.76347000  1.96730000  1
  Mo  Mo4  1  3.61415000  0.03185350  3.63389000  1
  Mo  Mo5  1  5.48280000  1.77634000  3.61773000  1
  Mo  Mo6  1  5.43326000  -0.01033730  1.83582000  1
  Mo  Mo7  1  3.58600000  1.81663000  1.81314000  1
  Mo  Mo8  1  -0.05330920  3.54645000  3.65963000  1
  Mo  Mo9  1  1.78414000  5.50515000  3.55969000  1
  Mo  Mo10  1  1.83000000  3.70059000  1.71890000  1
  Mo  Mo11  1  0.01721810  5.42190000  1.75412000  1
  Mo  Mo12  1  3.67520000  3.67998000  3.58446000  1
  Mo  Mo13  1  5.43786000  5.41853000  -0.03303680  1
  Mo  Mo14  1  5.45501000  3.58719000  1.88444000  1
  Mo  Mo15  1  3.65857000  5.48740000  1.85849000  1
