# generated using pymatgen
data_Mo
_symmetry_space_group_name_H-M   'P 1'
_cell_length_a   7.28420541
_cell_length_b   7.28420541
_cell_length_c   3.64210272
_cell_angle_alpha   90.00000000
_cell_angle_beta   90.00000000
_cell_angle_gamma   90.00000000
_symmetry_Int_Tables_number   1
_chemical_formula_structural   Mo
_chemical_formula_sum   Mo16
_cell_volume   193.24869004
_cell_formula_units_Z   16
loop_
 _symmetry_equiv_pos_site_id
 _symmetry_equiv_pos_as_xyz
  1  'x, y, z'
loop_
 _atom_site_type_symbol
 _atom_site_label
 _atom_site_symmetry_multiplicity
 _atom_site_fract_x
 _atom_site_fract_y
 _atom_site_fract_z
 _atom_site_occupancy
  Mo  Mo0  1  -0.08168790  0.03474110  0.02757450  1
  Mo  Mo1  1  1.77692000  1.85720000  -0.00971273  1
  Mo  Mo2  1  1.77854000  0.06132760  1.79616000  1
  Mo  Mo3  1  7.21171000  1.83938000  1.77123000  1
  Mo  Mo4  1  3.64589000  -0.02691360  3.59647000  1
  Mo  Mo5  1  5.41244000  1.77752000  3.62098000  1
  Mo  Mo6  1  5.50276000  -0.12003800  1.80360000  1
  Mo  Mo7  1  3.70900000  1.78745000  1.77586000  1
  Mo  Mo8  1  0.01806510  3.67991000  3.63085000  1
  Mo  Mo9  1  1.82291000  5.35384000  3.70026000  1
  Mo  Mo10  1  1.90535000  3.67168000  1.85167000  1
  Mo  Mo11  1  0.05200180  5.50240000  1.80262000  1
  Mo  Mo12  1  3.62514000  3.67450000  3.67606000  1
  Mo  Mo13  1  5.47508000  5.43860000  0.01986880  1
  Mo  Mo14  1  5.48263000  3.65118000  1.86252000  1
  Mo  Mo15  1  3.60304000  5.47282000  1.82810000  1
