# generated using pymatgen
data_Mo
_symmetry_space_group_name_H-M   'P 1'
_cell_length_a   7.28420541
_cell_length_b   7.28420541
_cell_length_c   3.64210272
_cell_angle_alpha   90.00000000
_cell_angle_beta   90.00000000
_cell_angle_gamma   90.00000000
_symmetry_Int_Tables_number   1
_chemical_formula_structural   Mo
_chemical_formula_sum   Mo16
_cell_volume   193.24869004
_cell_formula_units_Z   16
loop_
 _symmetry_equiv_pos_site_id
 _symmetry_equiv_pos_as_xyz
  1  'x, y, z'
loop_
 _atom_site_type_symbol
 _atom_site_label
 _atom_site_symmetry_multiplicity
 _atom_site_fract_x
 _atom_site_fract_y
 _atom_site_fract_z
 _atom_site_occupancy
  Mo  Mo0  1  -0.02572030  -0.05499900  -0.02888430  1
  Mo  Mo1  1  1.75366000  1.80653000  -0.05618680  1
  Mo  Mo2  1  1.79653000  0.04541850  1.76732000  1
  Mo  Mo3  1  7.31018000  1.79577000  1.78950000  1
  Mo  Mo4  1  3.65440000  -0.06119800  3.65563000  1
  Mo  Mo5  1  5.49467000  1.84728000  3.57153000  1
  Mo  Mo6  1  5.47499000  0.02789410  1.80658000  1
  Mo  Mo7  1  3.60462000  1.84971000  1.72670000  1
  Mo  Mo8  1  0.01445820  3.65059000  3.66710000  1
  Mo  Mo9  1  1.86847000  5.51236000  3.64087000  1
  Mo  Mo10  1  1.86768000  3.65018000  1.86470000  1
  Mo  Mo11  1  -0.02231700  5.48472000  1.84520000  1
  Mo  Mo12  1  3.65767000  3.64699000  3.65214000  1
  Mo  Mo13  1  5.43268000  5.44648000  0.14403700  1
  Mo  Mo14  1  5.46522000  3.55633000  1.82357000  1
  Mo  Mo15  1  3.59259000  5.45154000  1.88430000  1
