# generated using pymatgen
data_Mo
_symmetry_space_group_name_H-M   'P 1'
_cell_length_a   7.28420541
_cell_length_b   7.28420541
_cell_length_c   3.64210272
_cell_angle_alpha   90.00000000
_cell_angle_beta   90.00000000
_cell_angle_gamma   90.00000000
_symmetry_Int_Tables_number   1
_chemical_formula_structural   Mo
_chemical_formula_sum   Mo16
_cell_volume   193.24869004
_cell_formula_units_Z   16
loop_
 _symmetry_equiv_pos_site_id
 _symmetry_equiv_pos_as_xyz
  1  'x, y, z'
loop_
 _atom_site_type_symbol
 _atom_site_label
 _atom_site_symmetry_multiplicity
 _atom_site_fract_x
 _atom_site_fract_y
 _atom_site_fract_z
 _atom_site_occupancy
  Mo  Mo0  1  -0.02980010  -0.01841380  -0.00212199  1
  Mo  Mo1  1  1.83606000  1.85055000  -0.01392220  1
  Mo  Mo2  1  1.81763000  0.03277790  1.84777000  1
  Mo  Mo3  1  7.26527000  1.83227000  1.84780000  1
  Mo  Mo4  1  3.69353000  -0.10124700  3.62041000  1
  Mo  Mo5  1  5.40047000  1.85091000  3.70019000  1
  Mo  Mo6  1  5.42466000  -0.06131500  1.80419000  1
  Mo  Mo7  1  3.70586000  1.83454000  1.87942000  1
  Mo  Mo8  1  0.01697120  3.59740000  3.61755000  1
  Mo  Mo9  1  1.78255000  5.43273000  3.59278000  1
  Mo  Mo10  1  1.83541000  3.60235000  1.80602000  1
  Mo  Mo11  1  0.00946937  5.42890000  1.89205000  1
  Mo  Mo12  1  3.64664000  3.66345000  3.60736000  1
  Mo  Mo13  1  5.51643000  5.53694000  -0.03930470  1
  Mo  Mo14  1  5.44948000  3.73422000  1.86278000  1
  Mo  Mo15  1  3.56916000  5.43952000  1.73111000  1
