# generated using pymatgen
data_Mo
_symmetry_space_group_name_H-M   'P 1'
_cell_length_a   7.27808089
_cell_length_b   7.27808089
_cell_length_c   3.63904047
_cell_angle_alpha   90.00000000
_cell_angle_beta   90.00000000
_cell_angle_gamma   90.00000000
_symmetry_Int_Tables_number   1
_chemical_formula_structural   Mo
_chemical_formula_sum   Mo16
_cell_volume   192.76165285
_cell_formula_units_Z   16
loop_
 _symmetry_equiv_pos_site_id
 _symmetry_equiv_pos_as_xyz
  1  'x, y, z'
loop_
 _atom_site_type_symbol
 _atom_site_label
 _atom_site_symmetry_multiplicity
 _atom_site_fract_x
 _atom_site_fract_y
 _atom_site_fract_z
 _atom_site_occupancy
  Mo  Mo0  1  0.01246220  7.28162000  0.01217350  1
  Mo  Mo1  1  1.82364000  1.80984000  0.01193090  1
  Mo  Mo2  1  1.80187000  7.27075000  1.82118000  1
  Mo  Mo3  1  7.28362000  1.82874000  1.83359000  1
  Mo  Mo4  1  3.64394000  7.27443000  3.63638000  1
  Mo  Mo5  1  5.45233000  1.81706000  0.00508843  1
  Mo  Mo6  1  5.45420000  -0.00027391  1.81319000  1
  Mo  Mo7  1  3.63113000  1.82021000  1.81061000  1
  Mo  Mo8  1  7.28299000  3.65138000  3.63385000  1
  Mo  Mo9  1  1.82699000  5.45079000  3.63631000  1
  Mo  Mo10  1  1.83192000  3.62967000  1.81079000  1
  Mo  Mo11  1  7.27158000  5.45535000  1.81817000  1
  Mo  Mo12  1  3.62870000  3.65521000  -0.01041800  1
  Mo  Mo13  1  5.44891000  5.45566000  3.63767000  1
  Mo  Mo14  1  5.47203000  3.63874000  1.82638000  1
  Mo  Mo15  1  3.63576000  5.46289000  1.81510000  1
