# generated using pymatgen
data_Mo
_symmetry_space_group_name_H-M   'P 1'
_cell_length_a   7.28420541
_cell_length_b   7.28420541
_cell_length_c   3.64210272
_cell_angle_alpha   90.00000000
_cell_angle_beta   90.00000000
_cell_angle_gamma   90.00000000
_symmetry_Int_Tables_number   1
_chemical_formula_structural   Mo
_chemical_formula_sum   Mo16
_cell_volume   193.24869004
_cell_formula_units_Z   16
loop_
 _symmetry_equiv_pos_site_id
 _symmetry_equiv_pos_as_xyz
  1  'x, y, z'
loop_
 _atom_site_type_symbol
 _atom_site_label
 _atom_site_symmetry_multiplicity
 _atom_site_fract_x
 _atom_site_fract_y
 _atom_site_fract_z
 _atom_site_occupancy
  Mo  Mo0  1  -0.04231030  0.03179810  0.02912400  1
  Mo  Mo1  1  1.84584000  1.79609000  0.05462700  1
  Mo  Mo2  1  1.76698000  0.00079874  1.83178000  1
  Mo  Mo3  1  7.20583000  1.87928000  1.86965000  1
  Mo  Mo4  1  3.60613000  0.00188219  3.66472000  1
  Mo  Mo5  1  5.46522000  1.75507000  3.69321000  1
  Mo  Mo6  1  5.47341000  -0.10782600  1.80770000  1
  Mo  Mo7  1  3.69302000  1.86732000  1.84982000  1
  Mo  Mo8  1  -0.01146730  3.67869000  3.59691000  1
  Mo  Mo9  1  1.82796000  5.48452000  3.59124000  1
  Mo  Mo10  1  1.85986000  3.59448000  1.77933000  1
  Mo  Mo11  1  0.06286470  5.39308000  1.71848000  1
  Mo  Mo12  1  3.67916000  3.74005000  3.60639000  1
  Mo  Mo13  1  5.44153000  5.41036000  -0.00698728  1
  Mo  Mo14  1  5.45269000  3.70289000  1.79859000  1
  Mo  Mo15  1  3.61307000  5.42711000  1.86952000  1
