# generated using pymatgen
data_Mo
_symmetry_space_group_name_H-M   'P 1'
_cell_length_a   7.28420541
_cell_length_b   7.28420541
_cell_length_c   3.64210272
_cell_angle_alpha   90.00000000
_cell_angle_beta   90.00000000
_cell_angle_gamma   90.00000000
_symmetry_Int_Tables_number   1
_chemical_formula_structural   Mo
_chemical_formula_sum   Mo16
_cell_volume   193.24869004
_cell_formula_units_Z   16
loop_
 _symmetry_equiv_pos_site_id
 _symmetry_equiv_pos_as_xyz
  1  'x, y, z'
loop_
 _atom_site_type_symbol
 _atom_site_label
 _atom_site_symmetry_multiplicity
 _atom_site_fract_x
 _atom_site_fract_y
 _atom_site_fract_z
 _atom_site_occupancy
  Mo  Mo0  1  -0.04103740  -0.06848090  -0.11253300  1
  Mo  Mo1  1  1.75223000  1.90415000  -0.00204121  1
  Mo  Mo2  1  1.83072000  -0.04372460  1.82381000  1
  Mo  Mo3  1  7.23499000  1.81175000  1.87268000  1
  Mo  Mo4  1  3.66560000  -0.01512150  3.68613000  1
  Mo  Mo5  1  5.44605000  1.74263000  3.61122000  1
  Mo  Mo6  1  5.45858000  -0.00792276  1.83264000  1
  Mo  Mo7  1  3.58611000  1.78671000  1.83787000  1
  Mo  Mo8  1  0.01179020  3.64548000  3.66454000  1
  Mo  Mo9  1  1.92515000  5.49784000  3.62375000  1
  Mo  Mo10  1  1.79717000  3.74545000  1.81207000  1
  Mo  Mo11  1  0.01024160  5.45007000  1.78837000  1
  Mo  Mo12  1  3.66492000  3.57757000  3.63273000  1
  Mo  Mo13  1  5.43153000  5.51342000  -0.01367110  1
  Mo  Mo14  1  5.48579000  3.63101000  1.84822000  1
  Mo  Mo15  1  3.67996000  5.48476000  1.84832000  1
