# generated using pymatgen
data_Mo
_symmetry_space_group_name_H-M   'P 1'
_cell_length_a   7.28420541
_cell_length_b   7.28420541
_cell_length_c   3.64210272
_cell_angle_alpha   90.00000000
_cell_angle_beta   90.00000000
_cell_angle_gamma   90.00000000
_symmetry_Int_Tables_number   1
_chemical_formula_structural   Mo
_chemical_formula_sum   Mo16
_cell_volume   193.24869004
_cell_formula_units_Z   16
loop_
 _symmetry_equiv_pos_site_id
 _symmetry_equiv_pos_as_xyz
  1  'x, y, z'
loop_
 _atom_site_type_symbol
 _atom_site_label
 _atom_site_symmetry_multiplicity
 _atom_site_fract_x
 _atom_site_fract_y
 _atom_site_fract_z
 _atom_site_occupancy
  Mo  Mo0  1  -0.06242510  0.02189710  -0.00078362  1
  Mo  Mo1  1  1.81867000  1.77963000  -0.04256770  1
  Mo  Mo2  1  1.81365000  -0.02699590  1.77294000  1
  Mo  Mo3  1  7.33778000  1.85978000  1.72929000  1
  Mo  Mo4  1  3.65215000  0.02185590  3.64820000  1
  Mo  Mo5  1  5.50440000  1.75788000  3.56102000  1
  Mo  Mo6  1  5.45871000  0.09931570  1.77147000  1
  Mo  Mo7  1  3.60039000  1.77524000  1.76200000  1
  Mo  Mo8  1  0.03264690  3.67103000  3.70657000  1
  Mo  Mo9  1  1.80346000  5.42555000  3.66021000  1
  Mo  Mo10  1  1.82944000  3.60606000  1.86967000  1
  Mo  Mo11  1  -0.03450110  5.44414000  1.87544000  1
  Mo  Mo12  1  3.62908000  3.64496000  3.65494000  1
  Mo  Mo13  1  5.43560000  5.52145000  0.11866200  1
  Mo  Mo14  1  5.49553000  3.56211000  1.83125000  1
  Mo  Mo15  1  3.62523000  5.49169000  1.83578000  1
