# generated using pymatgen
data_Mo
_symmetry_space_group_name_H-M   'P 1'
_cell_length_a   7.28420541
_cell_length_b   7.28420541
_cell_length_c   3.64210272
_cell_angle_alpha   90.00000000
_cell_angle_beta   90.00000000
_cell_angle_gamma   90.00000000
_symmetry_Int_Tables_number   1
_chemical_formula_structural   Mo
_chemical_formula_sum   Mo16
_cell_volume   193.24869004
_cell_formula_units_Z   16
loop_
 _symmetry_equiv_pos_site_id
 _symmetry_equiv_pos_as_xyz
  1  'x, y, z'
loop_
 _atom_site_type_symbol
 _atom_site_label
 _atom_site_symmetry_multiplicity
 _atom_site_fract_x
 _atom_site_fract_y
 _atom_site_fract_z
 _atom_site_occupancy
  Mo  Mo0  1  -0.01332450  -0.01284440  0.00121333  1
  Mo  Mo1  1  1.75831000  1.75773000  0.08349720  1
  Mo  Mo2  1  1.84608000  -0.01208250  1.81770000  1
  Mo  Mo3  1  7.27045000  1.84015000  1.81014000  1
  Mo  Mo4  1  3.59766000  0.01896270  3.69149000  1
  Mo  Mo5  1  5.47908000  1.76611000  3.66814000  1
  Mo  Mo6  1  5.38444000  0.00674910  1.80787000  1
  Mo  Mo7  1  3.61664000  1.75722000  1.81201000  1
  Mo  Mo8  1  -0.02494960  3.75606000  3.65274000  1
  Mo  Mo9  1  1.87487000  5.45318000  3.56281000  1
  Mo  Mo10  1  1.83673000  3.68973000  1.82367000  1
  Mo  Mo11  1  -0.00368731  5.46875000  1.71070000  1
  Mo  Mo12  1  3.67077000  3.67473000  3.62781000  1
  Mo  Mo13  1  5.44443000  5.42187000  0.02624030  1
  Mo  Mo14  1  5.49713000  3.59589000  1.80838000  1
  Mo  Mo15  1  3.70519000  5.47339000  1.84971000  1
