# generated using pymatgen
data_Mo
_symmetry_space_group_name_H-M   'P 1'
_cell_length_a   7.28420541
_cell_length_b   7.28420541
_cell_length_c   3.64210272
_cell_angle_alpha   90.00000000
_cell_angle_beta   90.00000000
_cell_angle_gamma   90.00000000
_symmetry_Int_Tables_number   1
_chemical_formula_structural   Mo
_chemical_formula_sum   Mo16
_cell_volume   193.24869004
_cell_formula_units_Z   16
loop_
 _symmetry_equiv_pos_site_id
 _symmetry_equiv_pos_as_xyz
  1  'x, y, z'
loop_
 _atom_site_type_symbol
 _atom_site_label
 _atom_site_symmetry_multiplicity
 _atom_site_fract_x
 _atom_site_fract_y
 _atom_site_fract_z
 _atom_site_occupancy
  Mo  Mo0  1  -0.02195990  0.09004490  0.10346300  1
  Mo  Mo1  1  1.86924000  1.78431000  0.05427430  1
  Mo  Mo2  1  1.79725000  -0.03363820  1.82762000  1
  Mo  Mo3  1  7.20673000  1.82862000  1.85236000  1
  Mo  Mo4  1  3.63797000  -0.05708330  3.61456000  1
  Mo  Mo5  1  5.48885000  1.84969000  3.72172000  1
  Mo  Mo6  1  5.50973000  -0.04854690  1.86862000  1
  Mo  Mo7  1  3.70805000  1.82012000  1.87417000  1
  Mo  Mo8  1  -0.00303591  3.61845000  3.61429000  1
  Mo  Mo9  1  1.78477000  5.40394000  3.64460000  1
  Mo  Mo10  1  1.82639000  3.52556000  1.77638000  1
  Mo  Mo11  1  0.04847140  5.51724000  1.75016000  1
  Mo  Mo12  1  3.60728000  3.70135000  3.65341000  1
  Mo  Mo13  1  5.43310000  5.47274000  -0.11454500  1
  Mo  Mo14  1  5.44070000  3.73911000  1.77367000  1
  Mo  Mo15  1  3.60627000  5.44369000  1.73934000  1
