# generated using pymatgen
data_Mo
_symmetry_space_group_name_H-M   'P 1'
_cell_length_a   7.28420541
_cell_length_b   7.28420541
_cell_length_c   3.64210272
_cell_angle_alpha   90.00000000
_cell_angle_beta   90.00000000
_cell_angle_gamma   90.00000000
_symmetry_Int_Tables_number   1
_chemical_formula_structural   Mo
_chemical_formula_sum   Mo16
_cell_volume   193.24869004
_cell_formula_units_Z   16
loop_
 _symmetry_equiv_pos_site_id
 _symmetry_equiv_pos_as_xyz
  1  'x, y, z'
loop_
 _atom_site_type_symbol
 _atom_site_label
 _atom_site_symmetry_multiplicity
 _atom_site_fract_x
 _atom_site_fract_y
 _atom_site_fract_z
 _atom_site_occupancy
  Mo  Mo0  1  0.00660185  -0.02582260  -0.06655480  1
  Mo  Mo1  1  1.80360000  1.84187000  -0.04345170  1
  Mo  Mo2  1  1.85868000  -0.03675730  1.86144000  1
  Mo  Mo3  1  7.28780000  1.84242000  1.79975000  1
  Mo  Mo4  1  3.62413000  -0.00695434  3.64290000  1
  Mo  Mo5  1  5.40670000  1.76781000  3.67442000  1
  Mo  Mo6  1  5.47760000  0.00276042  1.86642000  1
  Mo  Mo7  1  3.53541000  1.85662000  1.85775000  1
  Mo  Mo8  1  -0.03458310  3.56795000  3.64883000  1
  Mo  Mo9  1  1.86864000  5.58186000  3.63645000  1
  Mo  Mo10  1  1.79328000  3.68744000  1.84985000  1
  Mo  Mo11  1  0.00823188  5.45616000  1.76761000  1
  Mo  Mo12  1  3.65479000  3.59971000  3.63875000  1
  Mo  Mo13  1  5.43625000  5.46261000  -0.07018620  1
  Mo  Mo14  1  5.46225000  3.59146000  1.86949000  1
  Mo  Mo15  1  3.75043000  5.46646000  1.82064000  1
