# generated using pymatgen
data_Mo
_symmetry_space_group_name_H-M   'P 1'
_cell_length_a   7.28420541
_cell_length_b   7.28420541
_cell_length_c   3.64210272
_cell_angle_alpha   90.00000000
_cell_angle_beta   90.00000000
_cell_angle_gamma   90.00000000
_symmetry_Int_Tables_number   1
_chemical_formula_structural   Mo
_chemical_formula_sum   Mo16
_cell_volume   193.24869004
_cell_formula_units_Z   16
loop_
 _symmetry_equiv_pos_site_id
 _symmetry_equiv_pos_as_xyz
  1  'x, y, z'
loop_
 _atom_site_type_symbol
 _atom_site_label
 _atom_site_symmetry_multiplicity
 _atom_site_fract_x
 _atom_site_fract_y
 _atom_site_fract_z
 _atom_site_occupancy
  Mo  Mo0  1  -0.02331790  0.07377880  0.00682996  1
  Mo  Mo1  1  1.86257000  1.80188000  0.02992210  1
  Mo  Mo2  1  1.83762000  -0.01363760  1.81927000  1
  Mo  Mo3  1  7.23424000  1.87105000  1.82307000  1
  Mo  Mo4  1  3.66257000  0.01538130  3.59893000  1
  Mo  Mo5  1  5.46628000  1.74465000  3.59212000  1
  Mo  Mo6  1  5.48545000  -0.03380590  1.76632000  1
  Mo  Mo7  1  3.67382000  1.83407000  1.75979000  1
  Mo  Mo8  1  -0.01274800  3.58921000  3.65998000  1
  Mo  Mo9  1  1.80163000  5.50378000  3.64723000  1
  Mo  Mo10  1  1.78518000  3.52908000  1.83312000  1
  Mo  Mo11  1  0.07723290  5.44607000  1.82329000  1
  Mo  Mo12  1  3.60807000  3.68146000  3.60305000  1
  Mo  Mo13  1  5.43120000  5.49139000  0.06940580  1
  Mo  Mo14  1  5.45173000  3.63857000  1.81416000  1
  Mo  Mo15  1  3.59827000  5.48267000  1.90762000  1
