# generated using pymatgen
data_Mo
_symmetry_space_group_name_H-M   'P 1'
_cell_length_a   7.27808089
_cell_length_b   7.27808089
_cell_length_c   3.63904047
_cell_angle_alpha   90.00000000
_cell_angle_beta   90.00000000
_cell_angle_gamma   90.00000000
_symmetry_Int_Tables_number   1
_chemical_formula_structural   Mo
_chemical_formula_sum   Mo16
_cell_volume   192.76165285
_cell_formula_units_Z   16
loop_
 _symmetry_equiv_pos_site_id
 _symmetry_equiv_pos_as_xyz
  1  'x, y, z'
loop_
 _atom_site_type_symbol
 _atom_site_label
 _atom_site_symmetry_multiplicity
 _atom_site_fract_x
 _atom_site_fract_y
 _atom_site_fract_z
 _atom_site_occupancy
  Mo  Mo0  1  0.00874052  7.27702000  0.00938545  1
  Mo  Mo1  1  1.81873000  1.81776000  0.00579172  1
  Mo  Mo2  1  1.80484000  7.27107000  1.82125000  1
  Mo  Mo3  1  7.26941000  1.81335000  1.82409000  1
  Mo  Mo4  1  3.64495000  7.27715000  3.64332000  1
  Mo  Mo5  1  5.45316000  1.82412000  -0.00433173  1
  Mo  Mo6  1  5.44494000  0.00825730  1.81167000  1
  Mo  Mo7  1  3.64476000  1.82011000  1.81061000  1
  Mo  Mo8  1  7.26909000  3.65022000  3.63350000  1
  Mo  Mo9  1  1.82806000  5.45486000  3.63495000  1
  Mo  Mo10  1  1.82516000  3.63020000  1.81012000  1
  Mo  Mo11  1  7.28521000  5.45593000  1.82582000  1
  Mo  Mo12  1  3.63524000  3.65116000  -0.00953461  1
  Mo  Mo13  1  5.45559000  5.46506000  3.64166000  1
  Mo  Mo14  1  5.47752000  3.63687000  1.82900000  1
  Mo  Mo15  1  3.63667000  5.44895000  1.82470000  1
