# generated using pymatgen
data_Mo
_symmetry_space_group_name_H-M   'P 1'
_cell_length_a   7.28420541
_cell_length_b   7.28420541
_cell_length_c   3.64210272
_cell_angle_alpha   90.00000000
_cell_angle_beta   90.00000000
_cell_angle_gamma   90.00000000
_symmetry_Int_Tables_number   1
_chemical_formula_structural   Mo
_chemical_formula_sum   Mo16
_cell_volume   193.24869004
_cell_formula_units_Z   16
loop_
 _symmetry_equiv_pos_site_id
 _symmetry_equiv_pos_as_xyz
  1  'x, y, z'
loop_
 _atom_site_type_symbol
 _atom_site_label
 _atom_site_symmetry_multiplicity
 _atom_site_fract_x
 _atom_site_fract_y
 _atom_site_fract_z
 _atom_site_occupancy
  Mo  Mo0  1  0.07905340  -0.05677730  -0.01680210  1
  Mo  Mo1  1  1.76759000  1.81716000  -0.00130743  1
  Mo  Mo2  1  1.82685000  -0.05847400  1.82137000  1
  Mo  Mo3  1  7.35047000  1.84569000  1.85977000  1
  Mo  Mo4  1  3.59675000  0.05341970  3.65263000  1
  Mo  Mo5  1  5.55839000  1.87426000  3.57003000  1
  Mo  Mo6  1  5.45790000  -0.01817570  1.80633000  1
  Mo  Mo7  1  3.63051000  1.85552000  1.74091000  1
  Mo  Mo8  1  -0.07454510  3.69367000  3.66670000  1
  Mo  Mo9  1  1.82318000  5.42124000  3.59889000  1
  Mo  Mo10  1  1.79874000  3.60174000  1.83995000  1
  Mo  Mo11  1  -0.07521580  5.48618000  1.86315000  1
  Mo  Mo12  1  3.65388000  3.60776000  3.55207000  1
  Mo  Mo13  1  5.44075000  5.45691000  0.05907540  1
  Mo  Mo14  1  5.45066000  3.56617000  1.82190000  1
  Mo  Mo15  1  3.65485000  5.50930000  1.91944000  1
