# generated using pymatgen
data_Mo
_symmetry_space_group_name_H-M   'P 1'
_cell_length_a   7.28420541
_cell_length_b   7.28420541
_cell_length_c   3.64210272
_cell_angle_alpha   90.00000000
_cell_angle_beta   90.00000000
_cell_angle_gamma   90.00000000
_symmetry_Int_Tables_number   1
_chemical_formula_structural   Mo
_chemical_formula_sum   Mo16
_cell_volume   193.24869004
_cell_formula_units_Z   16
loop_
 _symmetry_equiv_pos_site_id
 _symmetry_equiv_pos_as_xyz
  1  'x, y, z'
loop_
 _atom_site_type_symbol
 _atom_site_label
 _atom_site_symmetry_multiplicity
 _atom_site_fract_x
 _atom_site_fract_y
 _atom_site_fract_z
 _atom_site_occupancy
  Mo  Mo0  1  -0.02291480  -0.03297500  -0.02871010  1
  Mo  Mo1  1  1.78138000  1.80717000  -0.05038070  1
  Mo  Mo2  1  1.82709000  0.18211500  1.81966000  1
  Mo  Mo3  1  7.24992000  1.77619000  1.72851000  1
  Mo  Mo4  1  3.67823000  0.04284770  3.67127000  1
  Mo  Mo5  1  5.42642000  1.75022000  3.68078000  1
  Mo  Mo6  1  5.46019000  -0.00919161  1.74384000  1
  Mo  Mo7  1  3.63858000  1.76268000  1.84265000  1
  Mo  Mo8  1  0.01782290  3.63686000  3.61338000  1
  Mo  Mo9  1  1.82549000  5.50735000  3.70344000  1
  Mo  Mo10  1  1.81055000  3.62148000  1.81979000  1
  Mo  Mo11  1  0.02565570  5.40685000  1.87679000  1
  Mo  Mo12  1  3.62446000  3.63178000  3.69967000  1
  Mo  Mo13  1  5.52117000  5.46888000  0.01611630  1
  Mo  Mo14  1  5.49841000  3.61439000  1.82555000  1
  Mo  Mo15  1  3.57734000  5.48894000  1.79175000  1
