# generated using pymatgen
data_Mo
_symmetry_space_group_name_H-M   'P 1'
_cell_length_a   7.28420541
_cell_length_b   7.28420541
_cell_length_c   3.64210272
_cell_angle_alpha   90.00000000
_cell_angle_beta   90.00000000
_cell_angle_gamma   90.00000000
_symmetry_Int_Tables_number   1
_chemical_formula_structural   Mo
_chemical_formula_sum   Mo16
_cell_volume   193.24869004
_cell_formula_units_Z   16
loop_
 _symmetry_equiv_pos_site_id
 _symmetry_equiv_pos_as_xyz
  1  'x, y, z'
loop_
 _atom_site_type_symbol
 _atom_site_label
 _atom_site_symmetry_multiplicity
 _atom_site_fract_x
 _atom_site_fract_y
 _atom_site_fract_z
 _atom_site_occupancy
  Mo  Mo0  1  -0.01805940  0.02008690  -0.04949730  1
  Mo  Mo1  1  1.81095000  1.71286000  -0.04919620  1
  Mo  Mo2  1  1.83753000  0.01412420  1.83022000  1
  Mo  Mo3  1  7.24153000  1.89515000  1.72405000  1
  Mo  Mo4  1  3.60605000  -0.01410680  3.64992000  1
  Mo  Mo5  1  5.41753000  1.89490000  3.59537000  1
  Mo  Mo6  1  5.47440000  -0.06481560  1.82985000  1
  Mo  Mo7  1  3.70249000  1.75887000  1.81293000  1
  Mo  Mo8  1  -0.04256480  3.72151000  3.64665000  1
  Mo  Mo9  1  1.79424000  5.40604000  3.71927000  1
  Mo  Mo10  1  1.86748000  3.63617000  1.87007000  1
  Mo  Mo11  1  0.01608930  5.46783000  1.82375000  1
  Mo  Mo12  1  3.65769000  3.65301000  3.60623000  1
  Mo  Mo13  1  5.45376000  5.38800000  0.02113660  1
  Mo  Mo14  1  5.49684000  3.71545000  1.86045000  1
  Mo  Mo15  1  3.62384000  5.45051000  1.86290000  1
