# generated using pymatgen
data_Mo
_symmetry_space_group_name_H-M   'P 1'
_cell_length_a   7.28420541
_cell_length_b   7.28420541
_cell_length_c   3.64210272
_cell_angle_alpha   90.00000000
_cell_angle_beta   90.00000000
_cell_angle_gamma   90.00000000
_symmetry_Int_Tables_number   1
_chemical_formula_structural   Mo
_chemical_formula_sum   Mo16
_cell_volume   193.24869004
_cell_formula_units_Z   16
loop_
 _symmetry_equiv_pos_site_id
 _symmetry_equiv_pos_as_xyz
  1  'x, y, z'
loop_
 _atom_site_type_symbol
 _atom_site_label
 _atom_site_symmetry_multiplicity
 _atom_site_fract_x
 _atom_site_fract_y
 _atom_site_fract_z
 _atom_site_occupancy
  Mo  Mo0  1  0.01130910  -0.04167660  0.02598060  1
  Mo  Mo1  1  1.82613000  1.80379000  -0.00203329  1
  Mo  Mo2  1  1.80278000  -0.05552590  1.81430000  1
  Mo  Mo3  1  7.31888000  1.81235000  1.87022000  1
  Mo  Mo4  1  3.60656000  -0.02101500  3.61686000  1
  Mo  Mo5  1  5.47744000  1.88146000  3.67677000  1
  Mo  Mo6  1  5.43634000  -0.00900242  1.85074000  1
  Mo  Mo7  1  3.61844000  1.79733000  1.90893000  1
  Mo  Mo8  1  -0.01889470  3.65536000  3.54645000  1
  Mo  Mo9  1  1.85917000  5.52840000  3.64426000  1
  Mo  Mo10  1  1.81886000  3.65910000  1.78623000  1
  Mo  Mo11  1  -0.06288370  5.51060000  1.82226000  1
  Mo  Mo12  1  3.71691000  3.53801000  3.70100000  1
  Mo  Mo13  1  5.40691000  5.47706000  -0.07267230  1
  Mo  Mo14  1  5.46662000  3.66376000  1.79841000  1
  Mo  Mo15  1  3.65522000  5.45558000  1.76638000  1
