# generated using pymatgen
data_Mo
_symmetry_space_group_name_H-M   'P 1'
_cell_length_a   7.28420541
_cell_length_b   7.28420541
_cell_length_c   3.64210272
_cell_angle_alpha   90.00000000
_cell_angle_beta   90.00000000
_cell_angle_gamma   90.00000000
_symmetry_Int_Tables_number   1
_chemical_formula_structural   Mo
_chemical_formula_sum   Mo16
_cell_volume   193.24869004
_cell_formula_units_Z   16
loop_
 _symmetry_equiv_pos_site_id
 _symmetry_equiv_pos_as_xyz
  1  'x, y, z'
loop_
 _atom_site_type_symbol
 _atom_site_label
 _atom_site_symmetry_multiplicity
 _atom_site_fract_x
 _atom_site_fract_y
 _atom_site_fract_z
 _atom_site_occupancy
  Mo  Mo0  1  0.05419700  -0.01462720  0.05548480  1
  Mo  Mo1  1  1.79658000  1.75928000  0.01503050  1
  Mo  Mo2  1  1.82566000  -0.03753370  1.82130000  1
  Mo  Mo3  1  7.27083000  1.86392000  1.82969000  1
  Mo  Mo4  1  3.60105000  -0.01965520  3.60420000  1
  Mo  Mo5  1  5.51528000  1.78256000  3.75519000  1
  Mo  Mo6  1  5.52628000  0.06845190  1.82594000  1
  Mo  Mo7  1  3.61420000  1.80416000  1.92362000  1
  Mo  Mo8  1  -0.02947190  3.64954000  3.60433000  1
  Mo  Mo9  1  1.84042000  5.44466000  3.65936000  1
  Mo  Mo10  1  1.80785000  3.61129000  1.79008000  1
  Mo  Mo11  1  -0.03906070  5.52094000  1.82067000  1
  Mo  Mo12  1  3.65922000  3.66211000  3.63145000  1
  Mo  Mo13  1  5.38718000  5.49384000  -0.05001070  1
  Mo  Mo14  1  5.46188000  3.55764000  1.76814000  1
  Mo  Mo15  1  3.64771000  5.50901000  1.69963000  1
