# generated using pymatgen
data_Mo
_symmetry_space_group_name_H-M   'P 1'
_cell_length_a   7.28420541
_cell_length_b   7.28420541
_cell_length_c   3.64210272
_cell_angle_alpha   90.00000000
_cell_angle_beta   90.00000000
_cell_angle_gamma   90.00000000
_symmetry_Int_Tables_number   1
_chemical_formula_structural   Mo
_chemical_formula_sum   Mo16
_cell_volume   193.24869004
_cell_formula_units_Z   16
loop_
 _symmetry_equiv_pos_site_id
 _symmetry_equiv_pos_as_xyz
  1  'x, y, z'
loop_
 _atom_site_type_symbol
 _atom_site_label
 _atom_site_symmetry_multiplicity
 _atom_site_fract_x
 _atom_site_fract_y
 _atom_site_fract_z
 _atom_site_occupancy
  Mo  Mo0  1  -0.04012940  0.04920040  0.01732220  1
  Mo  Mo1  1  1.91990000  1.73449000  -0.03584650  1
  Mo  Mo2  1  1.80038000  -0.00978098  1.75959000  1
  Mo  Mo3  1  7.24334000  1.87218000  1.72576000  1
  Mo  Mo4  1  3.61834000  0.04021000  3.60873000  1
  Mo  Mo5  1  5.45380000  1.78047000  3.67451000  1
  Mo  Mo6  1  5.46083000  -0.02097090  1.75903000  1
  Mo  Mo7  1  3.71308000  1.81355000  1.81771000  1
  Mo  Mo8  1  -0.02175010  3.70964000  3.68032000  1
  Mo  Mo9  1  1.77079000  5.43341000  3.71984000  1
  Mo  Mo10  1  1.84146000  3.52095000  1.82567000  1
  Mo  Mo11  1  0.03585860  5.43287000  1.89069000  1
  Mo  Mo12  1  3.66797000  3.68555000  3.62994000  1
  Mo  Mo13  1  5.43321000  5.46372000  0.05208730  1
  Mo  Mo14  1  5.45646000  3.74460000  1.79904000  1
  Mo  Mo15  1  3.58625000  5.40551000  1.82971000  1
