# generated using pymatgen
data_Mo
_symmetry_space_group_name_H-M   'P 1'
_cell_length_a   7.28420541
_cell_length_b   7.28420541
_cell_length_c   3.64210272
_cell_angle_alpha   90.00000000
_cell_angle_beta   90.00000000
_cell_angle_gamma   90.00000000
_symmetry_Int_Tables_number   1
_chemical_formula_structural   Mo
_chemical_formula_sum   Mo16
_cell_volume   193.24869004
_cell_formula_units_Z   16
loop_
 _symmetry_equiv_pos_site_id
 _symmetry_equiv_pos_as_xyz
  1  'x, y, z'
loop_
 _atom_site_type_symbol
 _atom_site_label
 _atom_site_symmetry_multiplicity
 _atom_site_fract_x
 _atom_site_fract_y
 _atom_site_fract_z
 _atom_site_occupancy
  Mo  Mo0  1  -0.04017360  0.01258590  -0.04252140  1
  Mo  Mo1  1  1.86257000  1.75789000  -0.07492680  1
  Mo  Mo2  1  1.81096000  -0.00488209  1.84690000  1
  Mo  Mo3  1  7.26218000  1.80551000  1.75079000  1
  Mo  Mo4  1  3.58121000  -0.08802410  3.63118000  1
  Mo  Mo5  1  5.39370000  1.76910000  3.60315000  1
  Mo  Mo6  1  5.41790000  0.03364730  1.77218000  1
  Mo  Mo7  1  3.70714000  1.77298000  1.74539000  1
  Mo  Mo8  1  0.01465750  3.66111000  3.65854000  1
  Mo  Mo9  1  1.84803000  5.41822000  3.64818000  1
  Mo  Mo10  1  1.79651000  3.66026000  1.91682000  1
  Mo  Mo11  1  0.00035761  5.47455000  1.82801000  1
  Mo  Mo12  1  3.65857000  3.69381000  3.68726000  1
  Mo  Mo13  1  5.50559000  5.56717000  0.06148440  1
  Mo  Mo14  1  5.49738000  3.68543000  1.84561000  1
  Mo  Mo15  1  3.62320000  5.43622000  1.87606000  1
