# generated using pymatgen
data_Mo
_symmetry_space_group_name_H-M   'P 1'
_cell_length_a   7.28420541
_cell_length_b   7.28420541
_cell_length_c   3.64210272
_cell_angle_alpha   90.00000000
_cell_angle_beta   90.00000000
_cell_angle_gamma   90.00000000
_symmetry_Int_Tables_number   1
_chemical_formula_structural   Mo
_chemical_formula_sum   Mo16
_cell_volume   193.24869004
_cell_formula_units_Z   16
loop_
 _symmetry_equiv_pos_site_id
 _symmetry_equiv_pos_as_xyz
  1  'x, y, z'
loop_
 _atom_site_type_symbol
 _atom_site_label
 _atom_site_symmetry_multiplicity
 _atom_site_fract_x
 _atom_site_fract_y
 _atom_site_fract_z
 _atom_site_occupancy
  Mo  Mo0  1  -0.05919420  0.04555100  -0.07732000  1
  Mo  Mo1  1  1.79161000  1.90834000  -0.00285767  1
  Mo  Mo2  1  1.74662000  -0.04326460  1.78931000  1
  Mo  Mo3  1  7.32570000  1.81468000  1.82310000  1
  Mo  Mo4  1  3.69740000  -0.06852020  3.71650000  1
  Mo  Mo5  1  5.48004000  1.84684000  3.58781000  1
  Mo  Mo6  1  5.42129000  0.03606990  1.78421000  1
  Mo  Mo7  1  3.58612000  1.81802000  1.80710000  1
  Mo  Mo8  1  0.04223300  3.64449000  3.68763000  1
  Mo  Mo9  1  1.84667000  5.42099000  3.60585000  1
  Mo  Mo10  1  1.81310000  3.68156000  1.86798000  1
  Mo  Mo11  1  -0.00775243  5.53660000  1.82413000  1
  Mo  Mo12  1  3.64258000  3.55509000  3.66873000  1
  Mo  Mo13  1  5.46679000  5.48353000  -0.00372714  1
  Mo  Mo14  1  5.48765000  3.55118000  1.84405000  1
  Mo  Mo15  1  3.65893000  5.42443000  1.83161000  1
