# generated using pymatgen
data_Mo
_symmetry_space_group_name_H-M   'P 1'
_cell_length_a   7.28420541
_cell_length_b   7.28420541
_cell_length_c   3.64210272
_cell_angle_alpha   90.00000000
_cell_angle_beta   90.00000000
_cell_angle_gamma   90.00000000
_symmetry_Int_Tables_number   1
_chemical_formula_structural   Mo
_chemical_formula_sum   Mo16
_cell_volume   193.24869004
_cell_formula_units_Z   16
loop_
 _symmetry_equiv_pos_site_id
 _symmetry_equiv_pos_as_xyz
  1  'x, y, z'
loop_
 _atom_site_type_symbol
 _atom_site_label
 _atom_site_symmetry_multiplicity
 _atom_site_fract_x
 _atom_site_fract_y
 _atom_site_fract_z
 _atom_site_occupancy
  Mo  Mo0  1  0.02081680  -0.05208210  -0.05815300  1
  Mo  Mo1  1  1.84649000  1.80832000  -0.03738440  1
  Mo  Mo2  1  1.82025000  -0.04525010  1.80684000  1
  Mo  Mo3  1  7.32868000  1.78220000  1.89314000  1
  Mo  Mo4  1  3.66597000  -0.07076360  3.67423000  1
  Mo  Mo5  1  5.44397000  1.93339000  3.56372000  1
  Mo  Mo6  1  5.44389000  -0.02270620  1.79952000  1
  Mo  Mo7  1  3.64726000  1.84107000  1.75421000  1
  Mo  Mo8  1  -0.01781190  3.65298000  3.68994000  1
  Mo  Mo9  1  1.78098000  5.45056000  3.65838000  1
  Mo  Mo10  1  1.83361000  3.66470000  1.82552000  1
  Mo  Mo11  1  -0.10675200  5.51878000  1.89048000  1
  Mo  Mo12  1  3.63937000  3.64392000  3.55565000  1
  Mo  Mo13  1  5.50617000  5.46559000  0.02887700  1
  Mo  Mo14  1  5.41383000  3.60423000  1.81317000  1
  Mo  Mo15  1  3.67308000  5.48065000  1.89595000  1
