# generated using pymatgen
data_Mo
_symmetry_space_group_name_H-M   'P 1'
_cell_length_a   7.27808089
_cell_length_b   7.27808089
_cell_length_c   3.63904047
_cell_angle_alpha   90.00000000
_cell_angle_beta   90.00000000
_cell_angle_gamma   90.00000000
_symmetry_Int_Tables_number   1
_chemical_formula_structural   Mo
_chemical_formula_sum   Mo16
_cell_volume   192.76165285
_cell_formula_units_Z   16
loop_
 _symmetry_equiv_pos_site_id
 _symmetry_equiv_pos_as_xyz
  1  'x, y, z'
loop_
 _atom_site_type_symbol
 _atom_site_label
 _atom_site_symmetry_multiplicity
 _atom_site_fract_x
 _atom_site_fract_y
 _atom_site_fract_z
 _atom_site_occupancy
  Mo  Mo0  1  0.00184774  7.27416000  -0.00863555  1
  Mo  Mo1  1  1.82630000  1.83747000  -0.00329266  1
  Mo  Mo2  1  1.82446000  7.27778000  1.82332000  1
  Mo  Mo3  1  7.28149000  1.81422000  1.80642000  1
  Mo  Mo4  1  3.63257000  7.28030000  3.62706000  1
  Mo  Mo5  1  5.45808000  1.81928000  0.00192523  1
  Mo  Mo6  1  5.45776000  -0.01953470  1.82402000  1
  Mo  Mo7  1  3.63816000  1.81751000  1.82003000  1
  Mo  Mo8  1  7.28403000  3.63958000  3.63786000  1
  Mo  Mo9  1  1.82341000  5.46271000  3.64278000  1
  Mo  Mo10  1  1.80592000  3.64161000  1.81455000  1
  Mo  Mo11  1  7.27953000  5.46094000  1.82476000  1
  Mo  Mo12  1  3.63220000  3.64182000  0.01692920  1
  Mo  Mo13  1  5.45728000  5.45779000  3.63576000  1
  Mo  Mo14  1  5.45381000  3.64634000  1.81155000  1
  Mo  Mo15  1  3.64523000  5.45011000  1.83695000  1
