# generated using pymatgen
data_Mo
_symmetry_space_group_name_H-M   'P 1'
_cell_length_a   7.28420541
_cell_length_b   7.28420541
_cell_length_c   3.64210272
_cell_angle_alpha   90.00000000
_cell_angle_beta   90.00000000
_cell_angle_gamma   90.00000000
_symmetry_Int_Tables_number   1
_chemical_formula_structural   Mo
_chemical_formula_sum   Mo16
_cell_volume   193.24869004
_cell_formula_units_Z   16
loop_
 _symmetry_equiv_pos_site_id
 _symmetry_equiv_pos_as_xyz
  1  'x, y, z'
loop_
 _atom_site_type_symbol
 _atom_site_label
 _atom_site_symmetry_multiplicity
 _atom_site_fract_x
 _atom_site_fract_y
 _atom_site_fract_z
 _atom_site_occupancy
  Mo  Mo0  1  0.01422330  -0.08241220  -0.06685560  1
  Mo  Mo1  1  1.75115000  1.78347000  -0.07778070  1
  Mo  Mo2  1  1.80679000  -0.04101210  1.81917000  1
  Mo  Mo3  1  7.26562000  1.89737000  1.71847000  1
  Mo  Mo4  1  3.58539000  -0.00608457  3.60054000  1
  Mo  Mo5  1  5.50777000  1.79120000  3.64220000  1
  Mo  Mo6  1  5.46123000  0.05247300  1.78726000  1
  Mo  Mo7  1  3.62912000  1.82284000  1.84335000  1
  Mo  Mo8  1  -0.00278072  3.72237000  3.61010000  1
  Mo  Mo9  1  1.91453000  5.41429000  3.70353000  1
  Mo  Mo10  1  1.81429000  3.68801000  1.87458000  1
  Mo  Mo11  1  -0.05700180  5.44795000  1.91937000  1
  Mo  Mo12  1  3.70435000  3.66990000  3.67205000  1
  Mo  Mo13  1  5.37155000  5.44299000  0.04544790  1
  Mo  Mo14  1  5.49875000  3.58853000  1.82893000  1
  Mo  Mo15  1  3.67480000  5.46371000  1.83375000  1
