# generated using pymatgen
data_Mo
_symmetry_space_group_name_H-M   'P 1'
_cell_length_a   7.28420541
_cell_length_b   7.28420541
_cell_length_c   3.64210272
_cell_angle_alpha   90.00000000
_cell_angle_beta   90.00000000
_cell_angle_gamma   90.00000000
_symmetry_Int_Tables_number   1
_chemical_formula_structural   Mo
_chemical_formula_sum   Mo16
_cell_volume   193.24869004
_cell_formula_units_Z   16
loop_
 _symmetry_equiv_pos_site_id
 _symmetry_equiv_pos_as_xyz
  1  'x, y, z'
loop_
 _atom_site_type_symbol
 _atom_site_label
 _atom_site_symmetry_multiplicity
 _atom_site_fract_x
 _atom_site_fract_y
 _atom_site_fract_z
 _atom_site_occupancy
  Mo  Mo0  1  0.04126960  -0.09556910  0.02088950  1
  Mo  Mo1  1  1.77918000  1.83957000  -0.03438680  1
  Mo  Mo2  1  1.80310000  0.00876828  1.78959000  1
  Mo  Mo3  1  7.30384000  1.75201000  1.77822000  1
  Mo  Mo4  1  3.61347000  0.06641660  3.56801000  1
  Mo  Mo5  1  5.48773000  1.78513000  3.58419000  1
  Mo  Mo6  1  5.53150000  0.02785830  1.82163000  1
  Mo  Mo7  1  3.58540000  1.84375000  1.77562000  1
  Mo  Mo8  1  -0.05260580  3.65793000  3.63849000  1
  Mo  Mo9  1  1.85059000  5.48725000  3.70331000  1
  Mo  Mo10  1  1.79870000  3.70748000  1.82771000  1
  Mo  Mo11  1  -0.03033140  5.42397000  1.86979000  1
  Mo  Mo12  1  3.69051000  3.58970000  3.72228000  1
  Mo  Mo13  1  5.41773000  5.45301000  0.05220970  1
  Mo  Mo14  1  5.44682000  3.68504000  1.83209000  1
  Mo  Mo15  1  3.67291000  5.42329000  1.80446000  1
