# generated using pymatgen
data_Mo
_symmetry_space_group_name_H-M   'P 1'
_cell_length_a   7.28420541
_cell_length_b   7.28420541
_cell_length_c   3.64210272
_cell_angle_alpha   90.00000000
_cell_angle_beta   90.00000000
_cell_angle_gamma   90.00000000
_symmetry_Int_Tables_number   1
_chemical_formula_structural   Mo
_chemical_formula_sum   Mo16
_cell_volume   193.24869004
_cell_formula_units_Z   16
loop_
 _symmetry_equiv_pos_site_id
 _symmetry_equiv_pos_as_xyz
  1  'x, y, z'
loop_
 _atom_site_type_symbol
 _atom_site_label
 _atom_site_symmetry_multiplicity
 _atom_site_fract_x
 _atom_site_fract_y
 _atom_site_fract_z
 _atom_site_occupancy
  Mo  Mo0  1  0.05288330  -0.02748590  0.03086480  1
  Mo  Mo1  1  1.81940000  1.86013000  0.02203370  1
  Mo  Mo2  1  1.85187000  0.02169830  1.85873000  1
  Mo  Mo3  1  7.31401000  1.87645000  1.82943000  1
  Mo  Mo4  1  3.60518000  -0.02315930  3.65246000  1
  Mo  Mo5  1  5.45191000  1.78460000  3.73309000  1
  Mo  Mo6  1  5.48386000  0.04697930  1.82211000  1
  Mo  Mo7  1  3.63869000  1.86997000  1.85187000  1
  Mo  Mo8  1  -0.01946430  3.57227000  3.62210000  1
  Mo  Mo9  1  1.85455000  5.43977000  3.59138000  1
  Mo  Mo10  1  1.75337000  3.65357000  1.83369000  1
  Mo  Mo11  1  -0.03807940  5.44496000  1.81130000  1
  Mo  Mo12  1  3.62448000  3.65285000  3.61529000  1
  Mo  Mo13  1  5.45344000  5.47310000  -0.00959642  1
  Mo  Mo14  1  5.46716000  3.51764000  1.77939000  1
  Mo  Mo15  1  3.62654000  5.49225000  1.70995000  1
