# generated using pymatgen
data_Mo
_symmetry_space_group_name_H-M   'P 1'
_cell_length_a   7.28420541
_cell_length_b   7.28420541
_cell_length_c   3.64210272
_cell_angle_alpha   90.00000000
_cell_angle_beta   90.00000000
_cell_angle_gamma   90.00000000
_symmetry_Int_Tables_number   1
_chemical_formula_structural   Mo
_chemical_formula_sum   Mo16
_cell_volume   193.24869004
_cell_formula_units_Z   16
loop_
 _symmetry_equiv_pos_site_id
 _symmetry_equiv_pos_as_xyz
  1  'x, y, z'
loop_
 _atom_site_type_symbol
 _atom_site_label
 _atom_site_symmetry_multiplicity
 _atom_site_fract_x
 _atom_site_fract_y
 _atom_site_fract_z
 _atom_site_occupancy
  Mo  Mo0  1  0.02654880  -0.00317031  -0.06197720  1
  Mo  Mo1  1  1.88093000  1.79220000  0.05530930  1
  Mo  Mo2  1  1.81764000  -0.02673440  1.86405000  1
  Mo  Mo3  1  7.30673000  1.89903000  1.87548000  1
  Mo  Mo4  1  3.63339000  -0.00101651  3.68626000  1
  Mo  Mo5  1  5.40819000  1.80529000  3.58446000  1
  Mo  Mo6  1  5.49071000  0.06025480  1.80593000  1
  Mo  Mo7  1  3.60104000  1.81384000  1.83064000  1
  Mo  Mo8  1  0.03077750  3.65141000  3.63699000  1
  Mo  Mo9  1  1.74739000  5.39637000  3.61551000  1
  Mo  Mo10  1  1.78158000  3.52798000  1.82294000  1
  Mo  Mo11  1  -0.00447173  5.51852000  1.74218000  1
  Mo  Mo12  1  3.62128000  3.61605000  3.58343000  1
  Mo  Mo13  1  5.46099000  5.51756000  0.03012410  1
  Mo  Mo14  1  5.46456000  3.59262000  1.78090000  1
  Mo  Mo15  1  3.67251000  5.49538000  1.90189000  1
