# generated using pymatgen
data_Mo
_symmetry_space_group_name_H-M   'P 1'
_cell_length_a   7.28420541
_cell_length_b   7.28420541
_cell_length_c   3.64210272
_cell_angle_alpha   90.00000000
_cell_angle_beta   90.00000000
_cell_angle_gamma   90.00000000
_symmetry_Int_Tables_number   1
_chemical_formula_structural   Mo
_chemical_formula_sum   Mo16
_cell_volume   193.24869004
_cell_formula_units_Z   16
loop_
 _symmetry_equiv_pos_site_id
 _symmetry_equiv_pos_as_xyz
  1  'x, y, z'
loop_
 _atom_site_type_symbol
 _atom_site_label
 _atom_site_symmetry_multiplicity
 _atom_site_fract_x
 _atom_site_fract_y
 _atom_site_fract_z
 _atom_site_occupancy
  Mo  Mo0  1  -0.03002000  0.04793900  0.03076460  1
  Mo  Mo1  1  1.89945000  1.71215000  -0.03510590  1
  Mo  Mo2  1  1.80380000  -0.08907990  1.83296000  1
  Mo  Mo3  1  7.34194000  1.83039000  1.75677000  1
  Mo  Mo4  1  3.63070000  -0.00904840  3.63691000  1
  Mo  Mo5  1  5.46602000  1.82568000  3.68835000  1
  Mo  Mo6  1  5.49807000  0.04350160  1.82658000  1
  Mo  Mo7  1  3.61209000  1.84387000  1.77488000  1
  Mo  Mo8  1  -0.02507910  3.66240000  3.70323000  1
  Mo  Mo9  1  1.74639000  5.48250000  3.72341000  1
  Mo  Mo10  1  1.81090000  3.65183000  1.82588000  1
  Mo  Mo11  1  -0.05192200  5.44424000  1.81624000  1
  Mo  Mo12  1  3.66911000  3.70176000  3.61096000  1
  Mo  Mo13  1  5.42098000  5.40578000  -0.02444930  1
  Mo  Mo14  1  5.48110000  3.73170000  1.80859000  1
  Mo  Mo15  1  3.66627000  5.36996000  1.77813000  1
