# generated using pymatgen
data_Mo
_symmetry_space_group_name_H-M   'P 1'
_cell_length_a   7.28420541
_cell_length_b   7.28420541
_cell_length_c   3.64210272
_cell_angle_alpha   90.00000000
_cell_angle_beta   90.00000000
_cell_angle_gamma   90.00000000
_symmetry_Int_Tables_number   1
_chemical_formula_structural   Mo
_chemical_formula_sum   Mo16
_cell_volume   193.24869004
_cell_formula_units_Z   16
loop_
 _symmetry_equiv_pos_site_id
 _symmetry_equiv_pos_as_xyz
  1  'x, y, z'
loop_
 _atom_site_type_symbol
 _atom_site_label
 _atom_site_symmetry_multiplicity
 _atom_site_fract_x
 _atom_site_fract_y
 _atom_site_fract_z
 _atom_site_occupancy
  Mo  Mo0  1  -0.02799950  0.00789640  0.09032880  1
  Mo  Mo1  1  1.83982000  1.82698000  0.12321900  1
  Mo  Mo2  1  1.85777000  -0.14324300  1.81933000  1
  Mo  Mo3  1  7.31352000  1.85284000  1.91291000  1
  Mo  Mo4  1  3.65422000  0.03577670  3.59808000  1
  Mo  Mo5  1  5.50379000  1.83517000  3.69217000  1
  Mo  Mo6  1  5.44511000  0.03159320  1.83555000  1
  Mo  Mo7  1  3.60909000  1.79212000  1.79043000  1
  Mo  Mo8  1  0.02215090  3.68863000  3.61525000  1
  Mo  Mo9  1  1.84784000  5.39106000  3.61619000  1
  Mo  Mo10  1  1.79549000  3.71233000  1.76402000  1
  Mo  Mo11  1  -0.07657310  5.40827000  1.74266000  1
  Mo  Mo12  1  3.56547000  3.61076000  3.64928000  1
  Mo  Mo13  1  5.41093000  5.46151000  -0.05141130  1
  Mo  Mo14  1  5.46438000  3.70784000  1.75906000  1
  Mo  Mo15  1  3.71479000  5.43607000  1.79703000  1
