# generated using pymatgen
data_Mo
_symmetry_space_group_name_H-M   'P 1'
_cell_length_a   7.28420541
_cell_length_b   7.28420541
_cell_length_c   3.64210272
_cell_angle_alpha   90.00000000
_cell_angle_beta   90.00000000
_cell_angle_gamma   90.00000000
_symmetry_Int_Tables_number   1
_chemical_formula_structural   Mo
_chemical_formula_sum   Mo16
_cell_volume   193.24869004
_cell_formula_units_Z   16
loop_
 _symmetry_equiv_pos_site_id
 _symmetry_equiv_pos_as_xyz
  1  'x, y, z'
loop_
 _atom_site_type_symbol
 _atom_site_label
 _atom_site_symmetry_multiplicity
 _atom_site_fract_x
 _atom_site_fract_y
 _atom_site_fract_z
 _atom_site_occupancy
  Mo  Mo0  1  -0.07091400  0.04796990  0.02024780  1
  Mo  Mo1  1  1.80885000  1.76602000  0.05236810  1
  Mo  Mo2  1  1.82861000  -0.01376640  1.86719000  1
  Mo  Mo3  1  7.26370000  1.84877000  1.77596000  1
  Mo  Mo4  1  3.67222000  -0.05316760  3.64179000  1
  Mo  Mo5  1  5.44047000  1.74314000  3.67937000  1
  Mo  Mo6  1  5.45953000  0.08004030  1.82863000  1
  Mo  Mo7  1  3.61228000  1.79141000  1.82248000  1
  Mo  Mo8  1  0.06594370  3.64242000  3.63816000  1
  Mo  Mo9  1  1.73964000  5.47783000  3.61306000  1
  Mo  Mo10  1  1.84489000  3.64076000  1.83032000  1
  Mo  Mo11  1  0.04107020  5.50121000  1.70733000  1
  Mo  Mo12  1  3.60413000  3.66879000  3.66039000  1
  Mo  Mo13  1  5.46831000  5.48718000  0.00842863  1
  Mo  Mo14  1  5.50050000  3.64412000  1.80437000  1
  Mo  Mo15  1  3.66057000  5.38285000  1.80400000  1
