# generated using pymatgen
data_Mo
_symmetry_space_group_name_H-M   'P 1'
_cell_length_a   7.28420541
_cell_length_b   7.28420541
_cell_length_c   3.64210272
_cell_angle_alpha   90.00000000
_cell_angle_beta   90.00000000
_cell_angle_gamma   90.00000000
_symmetry_Int_Tables_number   1
_chemical_formula_structural   Mo
_chemical_formula_sum   Mo16
_cell_volume   193.24869004
_cell_formula_units_Z   16
loop_
 _symmetry_equiv_pos_site_id
 _symmetry_equiv_pos_as_xyz
  1  'x, y, z'
loop_
 _atom_site_type_symbol
 _atom_site_label
 _atom_site_symmetry_multiplicity
 _atom_site_fract_x
 _atom_site_fract_y
 _atom_site_fract_z
 _atom_site_occupancy
  Mo  Mo0  1  0.06665240  -0.00236959  0.00800854  1
  Mo  Mo1  1  1.78816000  1.79388000  0.06551480  1
  Mo  Mo2  1  1.81420000  0.07334050  1.79840000  1
  Mo  Mo3  1  7.28835000  1.80744000  1.85257000  1
  Mo  Mo4  1  3.61060000  0.02590830  3.67691000  1
  Mo  Mo5  1  5.40814000  1.86005000  3.66529000  1
  Mo  Mo6  1  5.50698000  -0.13293000  1.83021000  1
  Mo  Mo7  1  3.70526000  1.79141000  1.82135000  1
  Mo  Mo8  1  -0.07731680  3.59195000  3.69272000  1
  Mo  Mo9  1  1.78597000  5.44407000  3.59877000  1
  Mo  Mo10  1  1.81102000  3.58484000  1.81909000  1
  Mo  Mo11  1  0.04291190  5.46761000  1.75988000  1
  Mo  Mo12  1  3.66888000  3.66874000  3.58435000  1
  Mo  Mo13  1  5.46971000  5.43350000  -0.01441070  1
  Mo  Mo14  1  5.45933000  3.64427000  1.84781000  1
  Mo  Mo15  1  3.59094000  5.60388000  1.74763000  1
