# generated using pymatgen
data_Mo
_symmetry_space_group_name_H-M   'P 1'
_cell_length_a   7.27808089
_cell_length_b   7.27808089
_cell_length_c   3.63904047
_cell_angle_alpha   90.00000000
_cell_angle_beta   90.00000000
_cell_angle_gamma   90.00000000
_symmetry_Int_Tables_number   1
_chemical_formula_structural   Mo
_chemical_formula_sum   Mo16
_cell_volume   192.76165285
_cell_formula_units_Z   16
loop_
 _symmetry_equiv_pos_site_id
 _symmetry_equiv_pos_as_xyz
  1  'x, y, z'
loop_
 _atom_site_type_symbol
 _atom_site_label
 _atom_site_symmetry_multiplicity
 _atom_site_fract_x
 _atom_site_fract_y
 _atom_site_fract_z
 _atom_site_occupancy
  Mo  Mo0  1  -0.00577860  7.27828000  -0.00000923  1
  Mo  Mo1  1  1.82741000  1.83268000  0.00263350  1
  Mo  Mo2  1  1.81247000  7.28256000  1.82489000  1
  Mo  Mo3  1  7.27626000  1.81985000  1.81678000  1
  Mo  Mo4  1  3.63627000  7.27475000  3.63043000  1
  Mo  Mo5  1  5.46637000  1.82437000  0.00439403  1
  Mo  Mo6  1  5.47019000  0.00308784  1.81909000  1
  Mo  Mo7  1  3.65016000  1.80721000  1.81594000  1
  Mo  Mo8  1  7.27241000  3.62566000  3.64255000  1
  Mo  Mo9  1  1.82371000  5.47451000  3.63403000  1
  Mo  Mo10  1  1.81286000  3.64717000  1.81446000  1
  Mo  Mo11  1  7.27182000  5.45228000  1.81723000  1
  Mo  Mo12  1  3.63292000  3.63566000  0.01372140  1
  Mo  Mo13  1  5.45185000  5.45902000  3.62963000  1
  Mo  Mo14  1  5.45613000  3.63128000  1.81681000  1
  Mo  Mo15  1  3.64701000  5.45370000  1.82942000  1
