# generated using pymatgen
data_Mo
_symmetry_space_group_name_H-M   'P 1'
_cell_length_a   7.28420541
_cell_length_b   7.28420541
_cell_length_c   3.64210272
_cell_angle_alpha   90.00000000
_cell_angle_beta   90.00000000
_cell_angle_gamma   90.00000000
_symmetry_Int_Tables_number   1
_chemical_formula_structural   Mo
_chemical_formula_sum   Mo16
_cell_volume   193.24869004
_cell_formula_units_Z   16
loop_
 _symmetry_equiv_pos_site_id
 _symmetry_equiv_pos_as_xyz
  1  'x, y, z'
loop_
 _atom_site_type_symbol
 _atom_site_label
 _atom_site_symmetry_multiplicity
 _atom_site_fract_x
 _atom_site_fract_y
 _atom_site_fract_z
 _atom_site_occupancy
  Mo  Mo0  1  0.02427090  0.07119180  -0.05855070  1
  Mo  Mo1  1  1.81089000  1.80477000  0.05290970  1
  Mo  Mo2  1  1.85166000  -0.08246890  1.80580000  1
  Mo  Mo3  1  7.21279000  1.82024000  1.83321000  1
  Mo  Mo4  1  3.65725000  -0.09621590  3.64997000  1
  Mo  Mo5  1  5.46473000  1.82632000  3.53415000  1
  Mo  Mo6  1  5.42286000  -0.03211330  1.73101000  1
  Mo  Mo7  1  3.63259000  1.78007000  1.75336000  1
  Mo  Mo8  1  -0.03631850  3.60875000  3.67365000  1
  Mo  Mo9  1  1.77765000  5.43854000  3.72427000  1
  Mo  Mo10  1  1.82985000  3.58621000  1.74712000  1
  Mo  Mo11  1  0.03943560  5.53506000  1.78048000  1
  Mo  Mo12  1  3.69536000  3.69410000  3.66421000  1
  Mo  Mo13  1  5.44142000  5.49906000  0.05725400  1
  Mo  Mo14  1  5.49093000  3.71773000  1.85738000  1
  Mo  Mo15  1  3.62444000  5.48434000  1.94789000  1
