# generated using pymatgen
data_Mo
_symmetry_space_group_name_H-M   'P 1'
_cell_length_a   7.28420541
_cell_length_b   7.28420541
_cell_length_c   3.64210272
_cell_angle_alpha   90.00000000
_cell_angle_beta   90.00000000
_cell_angle_gamma   90.00000000
_symmetry_Int_Tables_number   1
_chemical_formula_structural   Mo
_chemical_formula_sum   Mo16
_cell_volume   193.24869004
_cell_formula_units_Z   16
loop_
 _symmetry_equiv_pos_site_id
 _symmetry_equiv_pos_as_xyz
  1  'x, y, z'
loop_
 _atom_site_type_symbol
 _atom_site_label
 _atom_site_symmetry_multiplicity
 _atom_site_fract_x
 _atom_site_fract_y
 _atom_site_fract_z
 _atom_site_occupancy
  Mo  Mo0  1  0.00673835  0.04688880  0.02672930  1
  Mo  Mo1  1  1.85022000  1.83835000  -0.01100350  1
  Mo  Mo2  1  1.77809000  0.04558980  1.83805000  1
  Mo  Mo3  1  7.23777000  1.86668000  1.76226000  1
  Mo  Mo4  1  3.63100000  -0.03823790  3.61652000  1
  Mo  Mo5  1  5.47698000  1.74771000  3.68457000  1
  Mo  Mo6  1  5.47951000  0.05549950  1.81248000  1
  Mo  Mo7  1  3.64363000  1.81017000  1.86843000  1
  Mo  Mo8  1  0.03840660  3.59025000  3.60695000  1
  Mo  Mo9  1  1.76131000  5.46004000  3.68507000  1
  Mo  Mo10  1  1.84763000  3.52990000  1.79071000  1
  Mo  Mo11  1  0.05646380  5.42631000  1.82750000  1
  Mo  Mo12  1  3.64580000  3.63909000  3.70142000  1
  Mo  Mo13  1  5.46075000  5.53545000  -0.01269680  1
  Mo  Mo14  1  5.41992000  3.71522000  1.77171000  1
  Mo  Mo15  1  3.60558000  5.38669000  1.78540000  1
