# generated using pymatgen
data_Mo
_symmetry_space_group_name_H-M   'P 1'
_cell_length_a   7.28420541
_cell_length_b   7.28420541
_cell_length_c   3.64210272
_cell_angle_alpha   90.00000000
_cell_angle_beta   90.00000000
_cell_angle_gamma   90.00000000
_symmetry_Int_Tables_number   1
_chemical_formula_structural   Mo
_chemical_formula_sum   Mo16
_cell_volume   193.24869004
_cell_formula_units_Z   16
loop_
 _symmetry_equiv_pos_site_id
 _symmetry_equiv_pos_as_xyz
  1  'x, y, z'
loop_
 _atom_site_type_symbol
 _atom_site_label
 _atom_site_symmetry_multiplicity
 _atom_site_fract_x
 _atom_site_fract_y
 _atom_site_fract_z
 _atom_site_occupancy
  Mo  Mo0  1  -0.03214940  -0.05061720  0.01325270  1
  Mo  Mo1  1  1.85765000  1.87969000  -0.05963840  1
  Mo  Mo2  1  1.84933000  -0.00031692  1.84973000  1
  Mo  Mo3  1  7.22360000  1.82460000  1.80100000  1
  Mo  Mo4  1  3.68053000  -0.04906220  3.54023000  1
  Mo  Mo5  1  5.43156000  1.70773000  3.65536000  1
  Mo  Mo6  1  5.48098000  -0.00097975  1.83980000  1
  Mo  Mo7  1  3.62900000  1.90939000  1.81175000  1
  Mo  Mo8  1  0.01475210  3.57925000  3.64906000  1
  Mo  Mo9  1  1.76036000  5.49015000  3.63245000  1
  Mo  Mo10  1  1.86001000  3.63993000  1.85180000  1
  Mo  Mo11  1  0.01279710  5.43701000  1.84865000  1
  Mo  Mo12  1  3.62265000  3.73531000  3.64637000  1
  Mo  Mo13  1  5.46184000  5.48436000  0.01646200  1
  Mo  Mo14  1  5.43070000  3.65417000  1.84014000  1
  Mo  Mo15  1  3.65619000  5.41497000  1.81770000  1
