# generated using pymatgen
data_Mo
_symmetry_space_group_name_H-M   'P 1'
_cell_length_a   7.28420541
_cell_length_b   7.28420541
_cell_length_c   3.64210272
_cell_angle_alpha   90.00000000
_cell_angle_beta   90.00000000
_cell_angle_gamma   90.00000000
_symmetry_Int_Tables_number   1
_chemical_formula_structural   Mo
_chemical_formula_sum   Mo16
_cell_volume   193.24869004
_cell_formula_units_Z   16
loop_
 _symmetry_equiv_pos_site_id
 _symmetry_equiv_pos_as_xyz
  1  'x, y, z'
loop_
 _atom_site_type_symbol
 _atom_site_label
 _atom_site_symmetry_multiplicity
 _atom_site_fract_x
 _atom_site_fract_y
 _atom_site_fract_z
 _atom_site_occupancy
  Mo  Mo0  1  0.02115840  0.04546030  -0.00090386  1
  Mo  Mo1  1  1.85559000  1.84183000  -0.10979900  1
  Mo  Mo2  1  1.79702000  0.02194890  1.80511000  1
  Mo  Mo3  1  7.24296000  1.83856000  1.71495000  1
  Mo  Mo4  1  3.59132000  -0.05839230  3.55426000  1
  Mo  Mo5  1  5.42486000  1.78696000  3.60793000  1
  Mo  Mo6  1  5.48054000  -0.03343580  1.81137000  1
  Mo  Mo7  1  3.63490000  1.87307000  1.85410000  1
  Mo  Mo8  1  -0.00452606  3.58767000  3.61372000  1
  Mo  Mo9  1  1.80370000  5.45642000  3.73427000  1
  Mo  Mo10  1  1.83645000  3.63505000  1.85237000  1
  Mo  Mo11  1  0.04132720  5.47275000  1.91263000  1
  Mo  Mo12  1  3.66450000  3.75716000  3.68788000  1
  Mo  Mo13  1  5.43749000  5.38083000  0.01335600  1
  Mo  Mo14  1  5.44545000  3.59459000  1.84230000  1
  Mo  Mo15  1  3.66707000  5.45513000  1.86057000  1
