# generated using pymatgen
data_Mo
_symmetry_space_group_name_H-M   'P 1'
_cell_length_a   7.28420541
_cell_length_b   7.28420541
_cell_length_c   3.64210272
_cell_angle_alpha   90.00000000
_cell_angle_beta   90.00000000
_cell_angle_gamma   90.00000000
_symmetry_Int_Tables_number   1
_chemical_formula_structural   Mo
_chemical_formula_sum   Mo16
_cell_volume   193.24869004
_cell_formula_units_Z   16
loop_
 _symmetry_equiv_pos_site_id
 _symmetry_equiv_pos_as_xyz
  1  'x, y, z'
loop_
 _atom_site_type_symbol
 _atom_site_label
 _atom_site_symmetry_multiplicity
 _atom_site_fract_x
 _atom_site_fract_y
 _atom_site_fract_z
 _atom_site_occupancy
  Mo  Mo0  1  -0.00448090  -0.03247030  -0.02025020  1
  Mo  Mo1  1  1.82349000  1.84907000  0.01243210  1
  Mo  Mo2  1  1.79826000  -0.03297510  1.81871000  1
  Mo  Mo3  1  7.33453000  1.81977000  1.83461000  1
  Mo  Mo4  1  3.61463000  0.05575930  3.57628000  1
  Mo  Mo5  1  5.46931000  1.83560000  3.57423000  1
  Mo  Mo6  1  5.41829000  0.01112390  1.85431000  1
  Mo  Mo7  1  3.60601000  1.79371000  1.78149000  1
  Mo  Mo8  1  0.03484220  3.59926000  3.56060000  1
  Mo  Mo9  1  1.81500000  5.49879000  3.61821000  1
  Mo  Mo10  1  1.80674000  3.67722000  1.79736000  1
  Mo  Mo11  1  -0.06774280  5.46138000  1.83249000  1
  Mo  Mo12  1  3.64731000  3.53832000  3.68570000  1
  Mo  Mo13  1  5.44410000  5.47766000  0.05059280  1
  Mo  Mo14  1  5.49135000  3.58641000  1.84223000  1
  Mo  Mo15  1  3.70816000  5.51696000  1.93510000  1
