# generated using pymatgen
data_Mo
_symmetry_space_group_name_H-M   'P 1'
_cell_length_a   7.28420541
_cell_length_b   7.28420541
_cell_length_c   3.64210272
_cell_angle_alpha   90.00000000
_cell_angle_beta   90.00000000
_cell_angle_gamma   90.00000000
_symmetry_Int_Tables_number   1
_chemical_formula_structural   Mo
_chemical_formula_sum   Mo16
_cell_volume   193.24869004
_cell_formula_units_Z   16
loop_
 _symmetry_equiv_pos_site_id
 _symmetry_equiv_pos_as_xyz
  1  'x, y, z'
loop_
 _atom_site_type_symbol
 _atom_site_label
 _atom_site_symmetry_multiplicity
 _atom_site_fract_x
 _atom_site_fract_y
 _atom_site_fract_z
 _atom_site_occupancy
  Mo  Mo0  1  -0.03029210  -0.00704231  -0.01906630  1
  Mo  Mo1  1  1.93286000  1.84497000  0.00678654  1
  Mo  Mo2  1  1.84045000  0.03413920  1.77743000  1
  Mo  Mo3  1  7.20496000  1.83925000  1.83541000  1
  Mo  Mo4  1  3.60742000  0.00376079  3.63973000  1
  Mo  Mo5  1  5.39033000  1.76611000  3.60575000  1
  Mo  Mo6  1  5.43860000  -0.08625370  1.82629000  1
  Mo  Mo7  1  3.67229000  1.82374000  1.75904000  1
  Mo  Mo8  1  0.00456349  3.67497000  3.74230000  1
  Mo  Mo9  1  1.75168000  5.41018000  3.62184000  1
  Mo  Mo10  1  1.81457000  3.63929000  1.78242000  1
  Mo  Mo11  1  0.04265770  5.41460000  1.79953000  1
  Mo  Mo12  1  3.63969000  3.75811000  3.59841000  1
  Mo  Mo13  1  5.49637000  5.36920000  0.07340290  1
  Mo  Mo14  1  5.49497000  3.69334000  1.86323000  1
  Mo  Mo15  1  3.63868000  5.47723000  1.84160000  1
