# generated using pymatgen
data_Mo
_symmetry_space_group_name_H-M   'P 1'
_cell_length_a   7.28420541
_cell_length_b   7.28420541
_cell_length_c   3.64210272
_cell_angle_alpha   90.00000000
_cell_angle_beta   90.00000000
_cell_angle_gamma   90.00000000
_symmetry_Int_Tables_number   1
_chemical_formula_structural   Mo
_chemical_formula_sum   Mo16
_cell_volume   193.24869004
_cell_formula_units_Z   16
loop_
 _symmetry_equiv_pos_site_id
 _symmetry_equiv_pos_as_xyz
  1  'x, y, z'
loop_
 _atom_site_type_symbol
 _atom_site_label
 _atom_site_symmetry_multiplicity
 _atom_site_fract_x
 _atom_site_fract_y
 _atom_site_fract_z
 _atom_site_occupancy
  Mo  Mo0  1  -0.03502450  -0.00005507  -0.06486400  1
  Mo  Mo1  1  1.78614000  1.79755000  -0.04900430  1
  Mo  Mo2  1  1.84658000  -0.06659560  1.81342000  1
  Mo  Mo3  1  7.27179000  1.84536000  1.71992000  1
  Mo  Mo4  1  3.60942000  0.02931210  3.60720000  1
  Mo  Mo5  1  5.46898000  1.76361000  3.64434000  1
  Mo  Mo6  1  5.48065000  0.08709140  1.82183000  1
  Mo  Mo7  1  3.61571000  1.85235000  1.86167000  1
  Mo  Mo8  1  0.02876910  3.67692000  3.65784000  1
  Mo  Mo9  1  1.80477000  5.43039000  3.72856000  1
  Mo  Mo10  1  1.82722000  3.68333000  1.82265000  1
  Mo  Mo11  1  -0.04229960  5.45692000  1.87099000  1
  Mo  Mo12  1  3.61683000  3.65863000  3.61997000  1
  Mo  Mo13  1  5.48052000  5.46880000  0.00421351  1
  Mo  Mo14  1  5.48285000  3.61064000  1.84386000  1
  Mo  Mo15  1  3.69688000  5.36134000  1.85150000  1
