# generated using pymatgen
data_Mo
_symmetry_space_group_name_H-M   'P 1'
_cell_length_a   7.28420541
_cell_length_b   7.28420541
_cell_length_c   3.64210272
_cell_angle_alpha   90.00000000
_cell_angle_beta   90.00000000
_cell_angle_gamma   90.00000000
_symmetry_Int_Tables_number   1
_chemical_formula_structural   Mo
_chemical_formula_sum   Mo16
_cell_volume   193.24869004
_cell_formula_units_Z   16
loop_
 _symmetry_equiv_pos_site_id
 _symmetry_equiv_pos_as_xyz
  1  'x, y, z'
loop_
 _atom_site_type_symbol
 _atom_site_label
 _atom_site_symmetry_multiplicity
 _atom_site_fract_x
 _atom_site_fract_y
 _atom_site_fract_z
 _atom_site_occupancy
  Mo  Mo0  1  0.03101100  0.06729380  0.04336980  1
  Mo  Mo1  1  1.82059000  1.77800000  0.04351900  1
  Mo  Mo2  1  1.83220000  -0.05325200  1.83725000  1
  Mo  Mo3  1  7.33934000  1.79668000  1.85403000  1
  Mo  Mo4  1  3.64075000  0.03311890  3.67773000  1
  Mo  Mo5  1  5.47797000  1.84498000  3.67264000  1
  Mo  Mo6  1  5.44525000  0.09009940  1.88002000  1
  Mo  Mo7  1  3.64331000  1.71504000  1.84815000  1
  Mo  Mo8  1  -0.04958130  3.63258000  3.59610000  1
  Mo  Mo9  1  1.79875000  5.43632000  3.59454000  1
  Mo  Mo10  1  1.79700000  3.65732000  1.84555000  1
  Mo  Mo11  1  -0.01904270  5.42450000  1.76195000  1
  Mo  Mo12  1  3.62618000  3.55213000  3.65125000  1
  Mo  Mo13  1  5.50115000  5.54506000  -0.08891490  1
  Mo  Mo14  1  5.44190000  3.67826000  1.75979000  1
  Mo  Mo15  1  3.61303000  5.45746000  1.77712000  1
