# generated using pymatgen
data_Mo
_symmetry_space_group_name_H-M   'P 1'
_cell_length_a   7.28420541
_cell_length_b   7.28420541
_cell_length_c   3.64210272
_cell_angle_alpha   90.00000000
_cell_angle_beta   90.00000000
_cell_angle_gamma   90.00000000
_symmetry_Int_Tables_number   1
_chemical_formula_structural   Mo
_chemical_formula_sum   Mo16
_cell_volume   193.24869004
_cell_formula_units_Z   16
loop_
 _symmetry_equiv_pos_site_id
 _symmetry_equiv_pos_as_xyz
  1  'x, y, z'
loop_
 _atom_site_type_symbol
 _atom_site_label
 _atom_site_symmetry_multiplicity
 _atom_site_fract_x
 _atom_site_fract_y
 _atom_site_fract_z
 _atom_site_occupancy
  Mo  Mo0  1  -0.00625353  -0.11984600  0.03672750  1
  Mo  Mo1  1  1.81549000  1.78000000  -0.08230050  1
  Mo  Mo2  1  1.84918000  -0.06949760  1.87676000  1
  Mo  Mo3  1  7.37273000  1.87403000  1.85473000  1
  Mo  Mo4  1  3.67981000  -0.04258560  3.59205000  1
  Mo  Mo5  1  5.45551000  1.92714000  3.66244000  1
  Mo  Mo6  1  5.41681000  0.05349360  1.78494000  1
  Mo  Mo7  1  3.60217000  1.83574000  1.82166000  1
  Mo  Mo8  1  0.00909773  3.73179000  3.63801000  1
  Mo  Mo9  1  1.81087000  5.41965000  3.65381000  1
  Mo  Mo10  1  1.80551000  3.62278000  1.86399000  1
  Mo  Mo11  1  -0.06608880  5.45151000  1.84853000  1
  Mo  Mo12  1  3.65860000  3.61433000  3.61763000  1
  Mo  Mo13  1  5.42729000  5.49346000  -0.04475480  1
  Mo  Mo14  1  5.47585000  3.62757000  1.84694000  1
  Mo  Mo15  1  3.63323000  5.45602000  1.78294000  1
