# generated using pymatgen
data_Mo
_symmetry_space_group_name_H-M   'P 1'
_cell_length_a   7.27808089
_cell_length_b   7.27808089
_cell_length_c   3.63904047
_cell_angle_alpha   90.00000000
_cell_angle_beta   90.00000000
_cell_angle_gamma   90.00000000
_symmetry_Int_Tables_number   1
_chemical_formula_structural   Mo
_chemical_formula_sum   Mo16
_cell_volume   192.76165285
_cell_formula_units_Z   16
loop_
 _symmetry_equiv_pos_site_id
 _symmetry_equiv_pos_as_xyz
  1  'x, y, z'
loop_
 _atom_site_type_symbol
 _atom_site_label
 _atom_site_symmetry_multiplicity
 _atom_site_fract_x
 _atom_site_fract_y
 _atom_site_fract_z
 _atom_site_occupancy
  Mo  Mo0  1  0.00055021  7.28413000  -0.00733231  1
  Mo  Mo1  1  1.81367000  1.82604000  -0.01171210  1
  Mo  Mo2  1  1.81289000  7.28519000  1.81084000  1
  Mo  Mo3  1  7.27333000  1.80365000  1.81212000  1
  Mo  Mo4  1  3.63962000  7.27844000  3.65535000  1
  Mo  Mo5  1  5.45638000  1.82661000  -0.01561440  1
  Mo  Mo6  1  5.45713000  0.00281574  1.81424000  1
  Mo  Mo7  1  3.64749000  1.81603000  1.82577000  1
  Mo  Mo8  1  7.27201000  3.63015000  3.63373000  1
  Mo  Mo9  1  1.83308000  5.46537000  3.64553000  1
  Mo  Mo10  1  1.80831000  3.63716000  1.82717000  1
  Mo  Mo11  1  7.28069000  5.45383000  1.82192000  1
  Mo  Mo12  1  3.63256000  3.63107000  -0.00148544  1
  Mo  Mo13  1  5.45914000  5.46879000  3.65019000  1
  Mo  Mo14  1  5.46291000  3.63860000  1.82557000  1
  Mo  Mo15  1  3.65230000  5.45419000  1.82570000  1
