# generated using pymatgen
data_Mo
_symmetry_space_group_name_H-M   'P 1'
_cell_length_a   7.27808089
_cell_length_b   7.27808089
_cell_length_c   3.63904047
_cell_angle_alpha   90.00000000
_cell_angle_beta   90.00000000
_cell_angle_gamma   90.00000000
_symmetry_Int_Tables_number   1
_chemical_formula_structural   Mo
_chemical_formula_sum   Mo16
_cell_volume   192.76165285
_cell_formula_units_Z   16
loop_
 _symmetry_equiv_pos_site_id
 _symmetry_equiv_pos_as_xyz
  1  'x, y, z'
loop_
 _atom_site_type_symbol
 _atom_site_label
 _atom_site_symmetry_multiplicity
 _atom_site_fract_x
 _atom_site_fract_y
 _atom_site_fract_z
 _atom_site_occupancy
  Mo  Mo0  1  -0.00526903  7.27682000  -0.00104066  1
  Mo  Mo1  1  1.81229000  1.80917000  0.01250770  1
  Mo  Mo2  1  1.82775000  7.27015000  1.83905000  1
  Mo  Mo3  1  7.28606000  1.83093000  1.82826000  1
  Mo  Mo4  1  3.63724000  7.27653000  3.62709000  1
  Mo  Mo5  1  5.46454000  1.81484000  0.00832479  1
  Mo  Mo6  1  5.45949000  0.00177752  1.82401000  1
  Mo  Mo7  1  3.62842000  1.81984000  1.81160000  1
  Mo  Mo8  1  7.29318000  3.63665000  3.65361000  1
  Mo  Mo9  1  1.81061000  5.45125000  3.62378000  1
  Mo  Mo10  1  1.82855000  3.63968000  1.80546000  1
  Mo  Mo11  1  7.27960000  5.46450000  1.81763000  1
  Mo  Mo12  1  3.64814000  3.64500000  -0.00552356  1
  Mo  Mo13  1  5.45118000  5.45499000  3.63175000  1
  Mo  Mo14  1  5.44653000  3.64643000  1.81880000  1
  Mo  Mo15  1  3.63378000  5.46354000  1.81669000  1
