# generated using pymatgen
data_Mo
_symmetry_space_group_name_H-M   'P 1'
_cell_length_a   7.28420541
_cell_length_b   7.28420541
_cell_length_c   3.64210272
_cell_angle_alpha   90.00000000
_cell_angle_beta   90.00000000
_cell_angle_gamma   90.00000000
_symmetry_Int_Tables_number   1
_chemical_formula_structural   Mo
_chemical_formula_sum   Mo16
_cell_volume   193.24869004
_cell_formula_units_Z   16
loop_
 _symmetry_equiv_pos_site_id
 _symmetry_equiv_pos_as_xyz
  1  'x, y, z'
loop_
 _atom_site_type_symbol
 _atom_site_label
 _atom_site_symmetry_multiplicity
 _atom_site_fract_x
 _atom_site_fract_y
 _atom_site_fract_z
 _atom_site_occupancy
  Mo  Mo0  1  0.03665220  -0.00270615  -0.06519570  1
  Mo  Mo1  1  1.84581000  1.84528000  -0.03617770  1
  Mo  Mo2  1  1.83666000  0.02003670  1.84723000  1
  Mo  Mo3  1  7.21104000  1.94509000  1.77421000  1
  Mo  Mo4  1  3.57248000  -0.08426140  3.64769000  1
  Mo  Mo5  1  5.41835000  1.79020000  3.57388000  1
  Mo  Mo6  1  5.40964000  0.00597730  1.81692000  1
  Mo  Mo7  1  3.61846000  1.82557000  1.76612000  1
  Mo  Mo8  1  -0.02222290  3.61704000  3.69373000  1
  Mo  Mo9  1  1.76454000  5.53636000  3.66708000  1
  Mo  Mo10  1  1.84106000  3.58734000  1.84000000  1
  Mo  Mo11  1  0.05180670  5.43321000  1.81522000  1
  Mo  Mo12  1  3.73535000  3.62925000  3.62883000  1
  Mo  Mo13  1  5.48985000  5.44815000  0.07690660  1
  Mo  Mo14  1  5.47410000  3.65550000  1.80785000  1
  Mo  Mo15  1  3.65621000  5.40354000  1.89981000  1
