# generated using pymatgen
data_Mo
_symmetry_space_group_name_H-M   'P 1'
_cell_length_a   7.28235037
_cell_length_b   7.28235037
_cell_length_c   3.64117527
_cell_angle_alpha   90.00000000
_cell_angle_beta   90.00000000
_cell_angle_gamma   90.00000000
_symmetry_Int_Tables_number   1
_chemical_formula_structural   Mo
_chemical_formula_sum   Mo16
_cell_volume   193.10108955
_cell_formula_units_Z   16
loop_
 _symmetry_equiv_pos_site_id
 _symmetry_equiv_pos_as_xyz
  1  'x, y, z'
loop_
 _atom_site_type_symbol
 _atom_site_label
 _atom_site_symmetry_multiplicity
 _atom_site_fract_x
 _atom_site_fract_y
 _atom_site_fract_z
 _atom_site_occupancy
  Mo  Mo0  1  7.29671000  -0.12168500  3.63214000  1
  Mo  Mo1  1  1.87246000  1.79787000  -0.04075350  1
  Mo  Mo2  1  1.81058000  -0.02711410  1.79238000  1
  Mo  Mo3  1  0.00232730  1.84636000  1.89346000  1
  Mo  Mo4  1  3.72647000  7.34089000  0.00189896  1
  Mo  Mo5  1  5.55105000  1.82715000  -0.00741029  1
  Mo  Mo6  1  5.46455000  -0.02552620  1.77890000  1
  Mo  Mo7  1  3.70707000  1.78945000  1.80629000  1
  Mo  Mo8  1  -0.02877670  3.66575000  3.71295000  1
  Mo  Mo9  1  1.81748000  5.49767000  3.67926000  1
  Mo  Mo10  1  1.74384000  3.61159000  1.83483000  1
  Mo  Mo11  1  7.29694000  5.49708000  1.83230000  1
  Mo  Mo12  1  3.54326000  3.65109000  -0.03347730  1
  Mo  Mo13  1  5.40414000  5.43702000  3.61121000  1
  Mo  Mo14  1  5.42419000  3.70635000  1.81729000  1
  Mo  Mo15  1  3.59170000  5.44770000  1.80074000  1
