# generated using pymatgen
data_Mo
_symmetry_space_group_name_H-M   'P 1'
_cell_length_a   7.28235037
_cell_length_b   7.28235037
_cell_length_c   3.64117527
_cell_angle_alpha   90.00000000
_cell_angle_beta   90.00000000
_cell_angle_gamma   90.00000000
_symmetry_Int_Tables_number   1
_chemical_formula_structural   Mo
_chemical_formula_sum   Mo16
_cell_volume   193.10108955
_cell_formula_units_Z   16
loop_
 _symmetry_equiv_pos_site_id
 _symmetry_equiv_pos_as_xyz
  1  'x, y, z'
loop_
 _atom_site_type_symbol
 _atom_site_label
 _atom_site_symmetry_multiplicity
 _atom_site_fract_x
 _atom_site_fract_y
 _atom_site_fract_z
 _atom_site_occupancy
  Mo  Mo0  1  7.21521000  0.00022890  3.64030000  1
  Mo  Mo1  1  1.78590000  1.78593000  -0.00714918  1
  Mo  Mo2  1  1.82705000  -0.00140311  1.88116000  1
  Mo  Mo3  1  -0.07215250  1.79400000  1.86915000  1
  Mo  Mo4  1  3.66185000  7.29291000  -0.10069500  1
  Mo  Mo5  1  5.41986000  1.83659000  -0.08942000  1
  Mo  Mo6  1  5.46328000  -0.02055850  1.65391000  1
  Mo  Mo7  1  3.61898000  1.87106000  1.73143000  1
  Mo  Mo8  1  0.08682200  3.61463000  3.70511000  1
  Mo  Mo9  1  1.75453000  5.50583000  3.66134000  1
  Mo  Mo10  1  1.81217000  3.57883000  1.82691000  1
  Mo  Mo11  1  7.39388000  5.44390000  1.90303000  1
  Mo  Mo12  1  3.59131000  3.71427000  -0.00333424  1
  Mo  Mo13  1  5.48585000  5.39419000  3.71581000  1
  Mo  Mo14  1  5.48348000  3.63956000  1.87830000  1
  Mo  Mo15  1  3.69599000  5.49168000  1.84616000  1
