# generated using pymatgen
data_Mo
_symmetry_space_group_name_H-M   'P 1'
_cell_length_a   7.28235037
_cell_length_b   7.28235037
_cell_length_c   3.64117527
_cell_angle_alpha   90.00000000
_cell_angle_beta   90.00000000
_cell_angle_gamma   90.00000000
_symmetry_Int_Tables_number   1
_chemical_formula_structural   Mo
_chemical_formula_sum   Mo16
_cell_volume   193.10108955
_cell_formula_units_Z   16
loop_
 _symmetry_equiv_pos_site_id
 _symmetry_equiv_pos_as_xyz
  1  'x, y, z'
loop_
 _atom_site_type_symbol
 _atom_site_label
 _atom_site_symmetry_multiplicity
 _atom_site_fract_x
 _atom_site_fract_y
 _atom_site_fract_z
 _atom_site_occupancy
  Mo  Mo0  1  7.22522000  0.01775220  3.58394000  1
  Mo  Mo1  1  1.80657000  1.79991000  0.05030290  1
  Mo  Mo2  1  1.84143000  -0.01094770  1.78636000  1
  Mo  Mo3  1  0.06534960  1.83929000  1.80320000  1
  Mo  Mo4  1  3.57573000  7.25249000  -0.02619140  1
  Mo  Mo5  1  5.52990000  1.74173000  -0.02272440  1
  Mo  Mo6  1  5.43693000  0.04029410  1.91749000  1
  Mo  Mo7  1  3.62201000  1.82934000  1.78836000  1
  Mo  Mo8  1  0.02191270  3.67880000  3.71532000  1
  Mo  Mo9  1  1.84682000  5.47547000  3.71304000  1
  Mo  Mo10  1  1.79561000  3.74546000  1.91865000  1
  Mo  Mo11  1  7.25588000  5.45203000  1.82599000  1
  Mo  Mo12  1  3.63684000  3.57051000  -0.02770830  1
  Mo  Mo13  1  5.42993000  5.43424000  3.53361000  1
  Mo  Mo14  1  5.48628000  3.64113000  1.78463000  1
  Mo  Mo15  1  3.64759000  5.43415000  1.76774000  1
