# generated using pymatgen
data_Mo
_symmetry_space_group_name_H-M   'P 1'
_cell_length_a   7.28235037
_cell_length_b   7.28235037
_cell_length_c   3.64117527
_cell_angle_alpha   90.00000000
_cell_angle_beta   90.00000000
_cell_angle_gamma   90.00000000
_symmetry_Int_Tables_number   1
_chemical_formula_structural   Mo
_chemical_formula_sum   Mo16
_cell_volume   193.10108955
_cell_formula_units_Z   16
loop_
 _symmetry_equiv_pos_site_id
 _symmetry_equiv_pos_as_xyz
  1  'x, y, z'
loop_
 _atom_site_type_symbol
 _atom_site_label
 _atom_site_symmetry_multiplicity
 _atom_site_fract_x
 _atom_site_fract_y
 _atom_site_fract_z
 _atom_site_occupancy
  Mo  Mo0  1  7.35302000  -0.04247130  3.65837000  1
  Mo  Mo1  1  1.84321000  1.85304000  -0.07543670  1
  Mo  Mo2  1  1.84001000  -0.08209050  1.80654000  1
  Mo  Mo3  1  -0.00667729  1.80692000  1.86879000  1
  Mo  Mo4  1  3.68095000  7.28247000  -0.05106120  1
  Mo  Mo5  1  5.42623000  1.72570000  -0.08976870  1
  Mo  Mo6  1  5.42545000  0.04888850  1.70934000  1
  Mo  Mo7  1  3.54514000  1.86043000  1.72088000  1
  Mo  Mo8  1  -0.05351350  3.56000000  3.65298000  1
  Mo  Mo9  1  1.82316000  5.46163000  3.67527000  1
  Mo  Mo10  1  1.74897000  3.66461000  1.86322000  1
  Mo  Mo11  1  7.32399000  5.43173000  1.92786000  1
  Mo  Mo12  1  3.62557000  3.72152000  0.06993720  1
  Mo  Mo13  1  5.52797000  5.50421000  3.71296000  1
  Mo  Mo14  1  5.43329000  3.67121000  1.85192000  1
  Mo  Mo15  1  3.68723000  5.47383000  1.81020000  1
