# generated using pymatgen
data_Mo
_symmetry_space_group_name_H-M   'P 1'
_cell_length_a   7.28235037
_cell_length_b   7.28235037
_cell_length_c   3.64117527
_cell_angle_alpha   90.00000000
_cell_angle_beta   90.00000000
_cell_angle_gamma   90.00000000
_symmetry_Int_Tables_number   1
_chemical_formula_structural   Mo
_chemical_formula_sum   Mo16
_cell_volume   193.10108955
_cell_formula_units_Z   16
loop_
 _symmetry_equiv_pos_site_id
 _symmetry_equiv_pos_as_xyz
  1  'x, y, z'
loop_
 _atom_site_type_symbol
 _atom_site_label
 _atom_site_symmetry_multiplicity
 _atom_site_fract_x
 _atom_site_fract_y
 _atom_site_fract_z
 _atom_site_occupancy
  Mo  Mo0  1  7.24578000  -0.04537400  3.68786000  1
  Mo  Mo1  1  1.73251000  1.85659000  0.02486160  1
  Mo  Mo2  1  1.85916000  -0.03972940  1.88218000  1
  Mo  Mo3  1  -0.01521240  1.80783000  1.89760000  1
  Mo  Mo4  1  3.55029000  7.31035000  0.03000620  1
  Mo  Mo5  1  5.43457000  1.79117000  -0.12901400  1
  Mo  Mo6  1  5.46113000  0.04312340  1.66590000  1
  Mo  Mo7  1  3.58669000  1.83210000  1.70569000  1
  Mo  Mo8  1  0.03914590  3.60144000  3.68913000  1
  Mo  Mo9  1  1.84723000  5.44681000  3.66951000  1
  Mo  Mo10  1  1.83042000  3.63261000  1.80131000  1
  Mo  Mo11  1  7.30706000  5.44804000  1.89411000  1
  Mo  Mo12  1  3.66780000  3.62053000  -0.00517265  1
  Mo  Mo13  1  5.47730000  5.46037000  3.67496000  1
  Mo  Mo14  1  5.49764000  3.64468000  1.85165000  1
  Mo  Mo15  1  3.70249000  5.53111000  1.77140000  1
