# generated using pymatgen
data_Mo
_symmetry_space_group_name_H-M   'P 1'
_cell_length_a   7.28235037
_cell_length_b   7.28235037
_cell_length_c   3.64117527
_cell_angle_alpha   90.00000000
_cell_angle_beta   90.00000000
_cell_angle_gamma   90.00000000
_symmetry_Int_Tables_number   1
_chemical_formula_structural   Mo
_chemical_formula_sum   Mo16
_cell_volume   193.10108955
_cell_formula_units_Z   16
loop_
 _symmetry_equiv_pos_site_id
 _symmetry_equiv_pos_as_xyz
  1  'x, y, z'
loop_
 _atom_site_type_symbol
 _atom_site_label
 _atom_site_symmetry_multiplicity
 _atom_site_fract_x
 _atom_site_fract_y
 _atom_site_fract_z
 _atom_site_occupancy
  Mo  Mo0  1  7.32247000  -0.03102860  3.62952000  1
  Mo  Mo1  1  1.84533000  1.82740000  0.02881990  1
  Mo  Mo2  1  1.79118000  0.00835239  1.90311000  1
  Mo  Mo3  1  0.07753430  1.81143000  1.86655000  1
  Mo  Mo4  1  3.64448000  7.21553000  0.03922120  1
  Mo  Mo5  1  5.50920000  1.81688000  0.00204743  1
  Mo  Mo6  1  5.44810000  0.05367130  1.77824000  1
  Mo  Mo7  1  3.69254000  1.75112000  1.79547000  1
  Mo  Mo8  1  -0.02063590  3.69707000  3.64652000  1
  Mo  Mo9  1  1.80756000  5.47131000  3.59203000  1
  Mo  Mo10  1  1.83710000  3.66196000  1.82294000  1
  Mo  Mo11  1  7.23430000  5.41167000  1.80263000  1
  Mo  Mo12  1  3.60649000  3.63577000  -0.02963710  1
  Mo  Mo13  1  5.39152000  5.50161000  3.58715000  1
  Mo  Mo14  1  5.39887000  3.66494000  1.88406000  1
  Mo  Mo15  1  3.63797000  5.44397000  1.76333000  1
