# generated using pymatgen
data_Mo
_symmetry_space_group_name_H-M   'P 1'
_cell_length_a   7.28235037
_cell_length_b   7.28235037
_cell_length_c   3.64117527
_cell_angle_alpha   90.00000000
_cell_angle_beta   90.00000000
_cell_angle_gamma   90.00000000
_symmetry_Int_Tables_number   1
_chemical_formula_structural   Mo
_chemical_formula_sum   Mo16
_cell_volume   193.10108955
_cell_formula_units_Z   16
loop_
 _symmetry_equiv_pos_site_id
 _symmetry_equiv_pos_as_xyz
  1  'x, y, z'
loop_
 _atom_site_type_symbol
 _atom_site_label
 _atom_site_symmetry_multiplicity
 _atom_site_fract_x
 _atom_site_fract_y
 _atom_site_fract_z
 _atom_site_occupancy
  Mo  Mo0  1  7.33666000  -0.04607260  3.62160000  1
  Mo  Mo1  1  1.91164000  1.73088000  -0.00543466  1
  Mo  Mo2  1  1.86033000  0.00080668  1.78378000  1
  Mo  Mo3  1  0.05621780  1.79955000  1.87953000  1
  Mo  Mo4  1  3.70946000  7.28172000  0.00634184  1
  Mo  Mo5  1  5.51708000  1.88052000  0.02596350  1
  Mo  Mo6  1  5.43631000  0.02456990  1.85893000  1
  Mo  Mo7  1  3.63765000  1.84146000  1.89207000  1
  Mo  Mo8  1  0.00814662  3.70069000  3.69443000  1
  Mo  Mo9  1  1.78190000  5.51243000  3.60480000  1
  Mo  Mo10  1  1.76387000  3.69589000  1.81499000  1
  Mo  Mo11  1  7.22183000  5.46893000  1.69399000  1
  Mo  Mo12  1  3.54661000  3.60513000  0.01111000  1
  Mo  Mo13  1  5.36041000  5.41708000  3.59690000  1
  Mo  Mo14  1  5.49633000  3.63099000  1.79753000  1
  Mo  Mo15  1  3.57958000  5.39709000  1.83547000  1
