# generated using pymatgen
data_Mo
_symmetry_space_group_name_H-M   'P 1'
_cell_length_a   7.28235037
_cell_length_b   7.28235037
_cell_length_c   3.64117527
_cell_angle_alpha   90.00000000
_cell_angle_beta   90.00000000
_cell_angle_gamma   90.00000000
_symmetry_Int_Tables_number   1
_chemical_formula_structural   Mo
_chemical_formula_sum   Mo16
_cell_volume   193.10108955
_cell_formula_units_Z   16
loop_
 _symmetry_equiv_pos_site_id
 _symmetry_equiv_pos_as_xyz
  1  'x, y, z'
loop_
 _atom_site_type_symbol
 _atom_site_label
 _atom_site_symmetry_multiplicity
 _atom_site_fract_x
 _atom_site_fract_y
 _atom_site_fract_z
 _atom_site_occupancy
  Mo  Mo0  1  7.28729000  0.03087630  3.61885000  1
  Mo  Mo1  1  1.93688000  1.83907000  -0.03207640  1
  Mo  Mo2  1  1.77280000  0.10026100  1.78607000  1
  Mo  Mo3  1  -0.02247100  1.86321000  1.83105000  1
  Mo  Mo4  1  3.75821000  7.19409000  0.03710280  1
  Mo  Mo5  1  5.52881000  1.83718000  -0.00738359  1
  Mo  Mo6  1  5.47220000  0.01312960  1.89981000  1
  Mo  Mo7  1  3.70416000  1.73618000  1.86055000  1
  Mo  Mo8  1  -0.00970916  3.62260000  3.68477000  1
  Mo  Mo9  1  1.70186000  5.47708000  3.66477000  1
  Mo  Mo10  1  1.80257000  3.60456000  1.83597000  1
  Mo  Mo11  1  7.24936000  5.49040000  1.73024000  1
  Mo  Mo12  1  3.59866000  3.63401000  -0.05447780  1
  Mo  Mo13  1  5.41161000  5.42232000  3.60767000  1
  Mo  Mo14  1  5.38262000  3.60993000  1.76268000  1
  Mo  Mo15  1  3.64914000  5.46676000  1.88640000  1
