# generated using pymatgen
data_Mo
_symmetry_space_group_name_H-M   'P 1'
_cell_length_a   7.28235037
_cell_length_b   7.28235037
_cell_length_c   3.64117527
_cell_angle_alpha   90.00000000
_cell_angle_beta   90.00000000
_cell_angle_gamma   90.00000000
_symmetry_Int_Tables_number   1
_chemical_formula_structural   Mo
_chemical_formula_sum   Mo16
_cell_volume   193.10108955
_cell_formula_units_Z   16
loop_
 _symmetry_equiv_pos_site_id
 _symmetry_equiv_pos_as_xyz
  1  'x, y, z'
loop_
 _atom_site_type_symbol
 _atom_site_label
 _atom_site_symmetry_multiplicity
 _atom_site_fract_x
 _atom_site_fract_y
 _atom_site_fract_z
 _atom_site_occupancy
  Mo  Mo0  1  7.32033000  -0.06035810  3.64045000  1
  Mo  Mo1  1  1.79858000  1.79792000  -0.01188900  1
  Mo  Mo2  1  1.83937000  -0.00764679  1.80910000  1
  Mo  Mo3  1  -0.01437290  1.79155000  1.81812000  1
  Mo  Mo4  1  3.72138000  7.26370000  -0.08305490  1
  Mo  Mo5  1  5.45299000  1.82869000  -0.01222230  1
  Mo  Mo6  1  5.42960000  0.01202770  1.77923000  1
  Mo  Mo7  1  3.59289000  1.86150000  1.91688000  1
  Mo  Mo8  1  0.01451220  3.66330000  3.69917000  1
  Mo  Mo9  1  1.88149000  5.45250000  3.57517000  1
  Mo  Mo10  1  1.79575000  3.66334000  1.77117000  1
  Mo  Mo11  1  7.30094000  5.46222000  1.80049000  1
  Mo  Mo12  1  3.57333000  3.61555000  0.07769530  1
  Mo  Mo13  1  5.39602000  5.48991000  3.63882000  1
  Mo  Mo14  1  5.45788000  3.68804000  1.92451000  1
  Mo  Mo15  1  3.66330000  5.41940000  1.76836000  1
