# generated using pymatgen
data_Mo
_symmetry_space_group_name_H-M   'P 1'
_cell_length_a   7.27808089
_cell_length_b   7.27808089
_cell_length_c   3.63904047
_cell_angle_alpha   90.00000000
_cell_angle_beta   90.00000000
_cell_angle_gamma   90.00000000
_symmetry_Int_Tables_number   1
_chemical_formula_structural   Mo
_chemical_formula_sum   Mo16
_cell_volume   192.76165285
_cell_formula_units_Z   16
loop_
 _symmetry_equiv_pos_site_id
 _symmetry_equiv_pos_as_xyz
  1  'x, y, z'
loop_
 _atom_site_type_symbol
 _atom_site_label
 _atom_site_symmetry_multiplicity
 _atom_site_fract_x
 _atom_site_fract_y
 _atom_site_fract_z
 _atom_site_occupancy
  Mo  Mo0  1  -0.01970640  7.27007000  -0.00638811  1
  Mo  Mo1  1  1.81829000  1.82559000  -0.00475462  1
  Mo  Mo2  1  1.82947000  7.28244000  1.83094000  1
  Mo  Mo3  1  7.27772000  1.81599000  1.81034000  1
  Mo  Mo4  1  3.63167000  7.27713000  3.64133000  1
  Mo  Mo5  1  5.45915000  1.82959000  -0.00750681  1
  Mo  Mo6  1  5.46475000  0.00494794  1.81480000  1
  Mo  Mo7  1  3.63168000  1.81190000  1.81351000  1
  Mo  Mo8  1  7.27683000  3.63369000  3.64697000  1
  Mo  Mo9  1  1.81597000  5.46054000  3.63612000  1
  Mo  Mo10  1  1.81486000  3.63705000  1.80778000  1
  Mo  Mo11  1  7.28528000  5.44923000  1.81767000  1
  Mo  Mo12  1  3.64770000  3.63635000  0.00838948  1
  Mo  Mo13  1  5.47463000  5.46860000  3.64900000  1
  Mo  Mo14  1  5.44297000  3.64696000  1.81994000  1
  Mo  Mo15  1  3.65080000  5.45200000  1.83386000  1
