# generated using pymatgen
data_Mo
_symmetry_space_group_name_H-M   'P 1'
_cell_length_a   7.28235037
_cell_length_b   7.28235037
_cell_length_c   3.64117527
_cell_angle_alpha   90.00000000
_cell_angle_beta   90.00000000
_cell_angle_gamma   90.00000000
_symmetry_Int_Tables_number   1
_chemical_formula_structural   Mo
_chemical_formula_sum   Mo16
_cell_volume   193.10108955
_cell_formula_units_Z   16
loop_
 _symmetry_equiv_pos_site_id
 _symmetry_equiv_pos_as_xyz
  1  'x, y, z'
loop_
 _atom_site_type_symbol
 _atom_site_label
 _atom_site_symmetry_multiplicity
 _atom_site_fract_x
 _atom_site_fract_y
 _atom_site_fract_z
 _atom_site_occupancy
  Mo  Mo0  1  7.32211000  0.06845390  3.67340000  1
  Mo  Mo1  1  1.86395000  1.86962000  -0.04137730  1
  Mo  Mo2  1  1.78593000  0.01535420  1.80016000  1
  Mo  Mo3  1  0.03636580  1.86701000  1.76591000  1
  Mo  Mo4  1  3.63053000  7.24057000  -0.05494330  1
  Mo  Mo5  1  5.46480000  1.78532000  0.08901450  1
  Mo  Mo6  1  5.40514000  -0.05224870  1.84192000  1
  Mo  Mo7  1  3.68760000  1.74323000  1.89949000  1
  Mo  Mo8  1  -0.03662360  3.69876000  3.57902000  1
  Mo  Mo9  1  1.74840000  5.40236000  3.62170000  1
  Mo  Mo10  1  1.86010000  3.63263000  1.76542000  1
  Mo  Mo11  1  7.25435000  5.48295000  1.77224000  1
  Mo  Mo12  1  3.66560000  3.68108000  0.03952640  1
  Mo  Mo13  1  5.41930000  5.51070000  3.66191000  1
  Mo  Mo14  1  5.51943000  3.55765000  1.79074000  1
  Mo  Mo15  1  3.59702000  5.43820000  1.90787000  1
