# generated using pymatgen
data_Mo
_symmetry_space_group_name_H-M   'P 1'
_cell_length_a   7.28235037
_cell_length_b   7.28235037
_cell_length_c   3.64117527
_cell_angle_alpha   90.00000000
_cell_angle_beta   90.00000000
_cell_angle_gamma   90.00000000
_symmetry_Int_Tables_number   1
_chemical_formula_structural   Mo
_chemical_formula_sum   Mo16
_cell_volume   193.10108955
_cell_formula_units_Z   16
loop_
 _symmetry_equiv_pos_site_id
 _symmetry_equiv_pos_as_xyz
  1  'x, y, z'
loop_
 _atom_site_type_symbol
 _atom_site_label
 _atom_site_symmetry_multiplicity
 _atom_site_fract_x
 _atom_site_fract_y
 _atom_site_fract_z
 _atom_site_occupancy
  Mo  Mo0  1  7.24618000  0.01700600  3.61069000  1
  Mo  Mo1  1  1.88609000  1.75033000  -0.02970210  1
  Mo  Mo2  1  1.74272000  0.04486000  1.83818000  1
  Mo  Mo3  1  0.03782180  1.83980000  1.78496000  1
  Mo  Mo4  1  3.68640000  7.19629000  0.06764750  1
  Mo  Mo5  1  5.45358000  1.83567000  0.03855220  1
  Mo  Mo6  1  5.45040000  -0.04849200  1.90751000  1
  Mo  Mo7  1  3.68850000  1.77048000  1.89786000  1
  Mo  Mo8  1  0.03841570  3.63079000  3.48221000  1
  Mo  Mo9  1  1.81603000  5.55904000  3.57453000  1
  Mo  Mo10  1  1.82235000  3.66339000  1.70908000  1
  Mo  Mo11  1  7.26280000  5.49770000  1.72417000  1
  Mo  Mo12  1  3.65947000  3.61605000  0.07959930  1
  Mo  Mo13  1  5.47963000  5.43222000  3.62910000  1
  Mo  Mo14  1  5.41853000  3.72504000  1.92675000  1
  Mo  Mo15  1  3.53509000  5.41147000  1.87085000  1
