# generated using pymatgen
data_Mo
_symmetry_space_group_name_H-M   'P 1'
_cell_length_a   7.28235037
_cell_length_b   7.28235037
_cell_length_c   3.64117527
_cell_angle_alpha   90.00000000
_cell_angle_beta   90.00000000
_cell_angle_gamma   90.00000000
_symmetry_Int_Tables_number   1
_chemical_formula_structural   Mo
_chemical_formula_sum   Mo16
_cell_volume   193.10108955
_cell_formula_units_Z   16
loop_
 _symmetry_equiv_pos_site_id
 _symmetry_equiv_pos_as_xyz
  1  'x, y, z'
loop_
 _atom_site_type_symbol
 _atom_site_label
 _atom_site_symmetry_multiplicity
 _atom_site_fract_x
 _atom_site_fract_y
 _atom_site_fract_z
 _atom_site_occupancy
  Mo  Mo0  1  7.20871000  -0.05363730  3.64748000  1
  Mo  Mo1  1  1.86749000  1.79808000  -0.03071590  1
  Mo  Mo2  1  1.78873000  -0.00667167  1.74718000  1
  Mo  Mo3  1  -0.06086680  1.81765000  1.81733000  1
  Mo  Mo4  1  3.64463000  7.21239000  -0.00599329  1
  Mo  Mo5  1  5.39917000  1.87027000  -0.00154408  1
  Mo  Mo6  1  5.45129000  0.06613030  1.88523000  1
  Mo  Mo7  1  3.52102000  1.80766000  1.79227000  1
  Mo  Mo8  1  0.09420200  3.55903000  3.75944000  1
  Mo  Mo9  1  1.80937000  5.47900000  3.66814000  1
  Mo  Mo10  1  1.86429000  3.64936000  1.85982000  1
  Mo  Mo11  1  7.34383000  5.41677000  1.78799000  1
  Mo  Mo12  1  3.58909000  3.70871000  -0.04348620  1
  Mo  Mo13  1  5.57398000  5.42964000  3.59673000  1
  Mo  Mo14  1  5.46474000  3.68789000  1.78144000  1
  Mo  Mo15  1  3.66433000  5.49939000  1.85069000  1
