# generated using pymatgen
data_Mo
_symmetry_space_group_name_H-M   'P 1'
_cell_length_a   7.28235037
_cell_length_b   7.28235037
_cell_length_c   3.64117527
_cell_angle_alpha   90.00000000
_cell_angle_beta   90.00000000
_cell_angle_gamma   90.00000000
_symmetry_Int_Tables_number   1
_chemical_formula_structural   Mo
_chemical_formula_sum   Mo16
_cell_volume   193.10108955
_cell_formula_units_Z   16
loop_
 _symmetry_equiv_pos_site_id
 _symmetry_equiv_pos_as_xyz
  1  'x, y, z'
loop_
 _atom_site_type_symbol
 _atom_site_label
 _atom_site_symmetry_multiplicity
 _atom_site_fract_x
 _atom_site_fract_y
 _atom_site_fract_z
 _atom_site_occupancy
  Mo  Mo0  1  7.33238000  -0.03083760  3.63891000  1
  Mo  Mo1  1  1.76375000  1.85764000  0.01430440  1
  Mo  Mo2  1  1.83332000  -0.04158670  1.84165000  1
  Mo  Mo3  1  -0.00781524  1.79289000  1.84504000  1
  Mo  Mo4  1  3.60338000  7.30169000  -0.02750220  1
  Mo  Mo5  1  5.35929000  1.76819000  0.03484160  1
  Mo  Mo6  1  5.51994000  0.00132803  1.74970000  1
  Mo  Mo7  1  3.64651000  1.81887000  1.84628000  1
  Mo  Mo8  1  -0.00641495  3.63609000  3.62852000  1
  Mo  Mo9  1  1.84376000  5.39318000  3.52373000  1
  Mo  Mo10  1  1.81649000  3.64550000  1.79148000  1
  Mo  Mo11  1  7.35713000  5.38369000  1.81651000  1
  Mo  Mo12  1  3.65669000  3.62798000  0.07600840  1
  Mo  Mo13  1  5.49149000  5.53419000  3.62130000  1
  Mo  Mo14  1  5.43311000  3.76375000  1.94476000  1
  Mo  Mo15  1  3.58100000  5.48910000  1.76646000  1
