# generated using pymatgen
data_Mo
_symmetry_space_group_name_H-M   'P 1'
_cell_length_a   7.28235037
_cell_length_b   7.28235037
_cell_length_c   3.64117527
_cell_angle_alpha   90.00000000
_cell_angle_beta   90.00000000
_cell_angle_gamma   90.00000000
_symmetry_Int_Tables_number   1
_chemical_formula_structural   Mo
_chemical_formula_sum   Mo16
_cell_volume   193.10108955
_cell_formula_units_Z   16
loop_
 _symmetry_equiv_pos_site_id
 _symmetry_equiv_pos_as_xyz
  1  'x, y, z'
loop_
 _atom_site_type_symbol
 _atom_site_label
 _atom_site_symmetry_multiplicity
 _atom_site_fract_x
 _atom_site_fract_y
 _atom_site_fract_z
 _atom_site_occupancy
  Mo  Mo0  1  7.31562000  0.04789110  3.64473000  1
  Mo  Mo1  1  1.84603000  1.78247000  -0.02663120  1
  Mo  Mo2  1  1.90024000  0.00819230  1.79037000  1
  Mo  Mo3  1  -0.01632040  1.81035000  1.89804000  1
  Mo  Mo4  1  3.69703000  7.27748000  -0.03327180  1
  Mo  Mo5  1  5.44978000  1.82538000  -0.01187560  1
  Mo  Mo6  1  5.48853000  0.02062690  1.83363000  1
  Mo  Mo7  1  3.63936000  1.88567000  1.81461000  1
  Mo  Mo8  1  -0.04125620  3.60544000  3.67975000  1
  Mo  Mo9  1  1.73651000  5.46999000  3.66965000  1
  Mo  Mo10  1  1.74002000  3.54908000  1.95291000  1
  Mo  Mo11  1  7.33389000  5.46991000  1.89100000  1
  Mo  Mo12  1  3.60677000  3.68732000  -0.06645230  1
  Mo  Mo13  1  5.45878000  5.40680000  3.59706000  1
  Mo  Mo14  1  5.42700000  3.68188000  1.72025000  1
  Mo  Mo15  1  3.64202000  5.41316000  1.75823000  1
