# generated using pymatgen
data_Mo
_symmetry_space_group_name_H-M   'P 1'
_cell_length_a   7.28235037
_cell_length_b   7.28235037
_cell_length_c   3.64117527
_cell_angle_alpha   90.00000000
_cell_angle_beta   90.00000000
_cell_angle_gamma   90.00000000
_symmetry_Int_Tables_number   1
_chemical_formula_structural   Mo
_chemical_formula_sum   Mo16
_cell_volume   193.10108955
_cell_formula_units_Z   16
loop_
 _symmetry_equiv_pos_site_id
 _symmetry_equiv_pos_as_xyz
  1  'x, y, z'
loop_
 _atom_site_type_symbol
 _atom_site_label
 _atom_site_symmetry_multiplicity
 _atom_site_fract_x
 _atom_site_fract_y
 _atom_site_fract_z
 _atom_site_occupancy
  Mo  Mo0  1  7.30106000  0.06315440  3.57611000  1
  Mo  Mo1  1  1.89949000  1.76435000  -0.07142720  1
  Mo  Mo2  1  1.77005000  -0.05000510  1.78555000  1
  Mo  Mo3  1  -0.00163831  1.82007000  1.88930000  1
  Mo  Mo4  1  3.66970000  7.27795000  0.04706300  1
  Mo  Mo5  1  5.45038000  1.87409000  0.02176750  1
  Mo  Mo6  1  5.46687000  0.08468710  1.79637000  1
  Mo  Mo7  1  3.67269000  1.76873000  1.82532000  1
  Mo  Mo8  1  -0.08951050  3.64879000  3.68885000  1
  Mo  Mo9  1  1.80475000  5.40209000  3.66238000  1
  Mo  Mo10  1  1.80024000  3.61985000  1.81109000  1
  Mo  Mo11  1  7.24961000  5.43810000  1.79025000  1
  Mo  Mo12  1  3.59195000  3.63894000  -0.03082000  1
  Mo  Mo13  1  5.47337000  5.52271000  3.65724000  1
  Mo  Mo14  1  5.43131000  3.63330000  1.83743000  1
  Mo  Mo15  1  3.73369000  5.43484000  1.82552000  1
