# generated using pymatgen
data_Mo
_symmetry_space_group_name_H-M   'P 1'
_cell_length_a   7.28235037
_cell_length_b   7.28235037
_cell_length_c   3.64117527
_cell_angle_alpha   90.00000000
_cell_angle_beta   90.00000000
_cell_angle_gamma   90.00000000
_symmetry_Int_Tables_number   1
_chemical_formula_structural   Mo
_chemical_formula_sum   Mo16
_cell_volume   193.10108955
_cell_formula_units_Z   16
loop_
 _symmetry_equiv_pos_site_id
 _symmetry_equiv_pos_as_xyz
  1  'x, y, z'
loop_
 _atom_site_type_symbol
 _atom_site_label
 _atom_site_symmetry_multiplicity
 _atom_site_fract_x
 _atom_site_fract_y
 _atom_site_fract_z
 _atom_site_occupancy
  Mo  Mo0  1  7.34469000  -0.07010800  3.59779000  1
  Mo  Mo1  1  1.87191000  1.81797000  -0.03097400  1
  Mo  Mo2  1  1.84182000  0.00546645  1.88663000  1
  Mo  Mo3  1  0.05340650  1.75730000  1.88678000  1
  Mo  Mo4  1  3.66740000  7.26216000  0.04502020  1
  Mo  Mo5  1  5.57393000  1.84578000  -0.00096724  1
  Mo  Mo6  1  5.43650000  -0.00466550  1.74504000  1
  Mo  Mo7  1  3.70897000  1.83268000  1.78591000  1
  Mo  Mo8  1  -0.05683230  3.70104000  3.65039000  1
  Mo  Mo9  1  1.78978000  5.47269000  3.65310000  1
  Mo  Mo10  1  1.70206000  3.61389000  1.82275000  1
  Mo  Mo11  1  7.32171000  5.49739000  1.79120000  1
  Mo  Mo12  1  3.56390000  3.64223000  -0.00351189  1
  Mo  Mo13  1  5.37900000  5.48950000  3.62538000  1
  Mo  Mo14  1  5.44999000  3.66843000  1.87362000  1
  Mo  Mo15  1  3.57577000  5.40990000  1.78383000  1
