# generated using pymatgen
data_Mo
_symmetry_space_group_name_H-M   'P 1'
_cell_length_a   7.28235037
_cell_length_b   7.28235037
_cell_length_c   3.64117527
_cell_angle_alpha   90.00000000
_cell_angle_beta   90.00000000
_cell_angle_gamma   90.00000000
_symmetry_Int_Tables_number   1
_chemical_formula_structural   Mo
_chemical_formula_sum   Mo16
_cell_volume   193.10108955
_cell_formula_units_Z   16
loop_
 _symmetry_equiv_pos_site_id
 _symmetry_equiv_pos_as_xyz
  1  'x, y, z'
loop_
 _atom_site_type_symbol
 _atom_site_label
 _atom_site_symmetry_multiplicity
 _atom_site_fract_x
 _atom_site_fract_y
 _atom_site_fract_z
 _atom_site_occupancy
  Mo  Mo0  1  7.30530000  -0.05664410  3.71334000  1
  Mo  Mo1  1  1.78086000  1.78656000  0.03369240  1
  Mo  Mo2  1  1.78160000  -0.03838910  1.87603000  1
  Mo  Mo3  1  -0.03635960  1.77319000  1.80581000  1
  Mo  Mo4  1  3.67076000  7.34771000  -0.14302000  1
  Mo  Mo5  1  5.45753000  1.82065000  -0.00126375  1
  Mo  Mo6  1  5.44511000  0.01350430  1.80618000  1
  Mo  Mo7  1  3.56197000  1.83074000  1.78750000  1
  Mo  Mo8  1  -0.02503880  3.63949000  3.63864000  1
  Mo  Mo9  1  1.90322000  5.41712000  3.68704000  1
  Mo  Mo10  1  1.81290000  3.66634000  1.81455000  1
  Mo  Mo11  1  7.30851000  5.40007000  1.82275000  1
  Mo  Mo12  1  3.61047000  3.70353000  -0.01404120  1
  Mo  Mo13  1  5.50917000  5.54287000  3.63110000  1
  Mo  Mo14  1  5.48253000  3.59609000  1.80872000  1
  Mo  Mo15  1  3.65548000  5.49883000  1.84498000  1
