# generated using pymatgen
data_Mo
_symmetry_space_group_name_H-M   'P 1'
_cell_length_a   7.28235037
_cell_length_b   7.28235037
_cell_length_c   3.64117527
_cell_angle_alpha   90.00000000
_cell_angle_beta   90.00000000
_cell_angle_gamma   90.00000000
_symmetry_Int_Tables_number   1
_chemical_formula_structural   Mo
_chemical_formula_sum   Mo16
_cell_volume   193.10108955
_cell_formula_units_Z   16
loop_
 _symmetry_equiv_pos_site_id
 _symmetry_equiv_pos_as_xyz
  1  'x, y, z'
loop_
 _atom_site_type_symbol
 _atom_site_label
 _atom_site_symmetry_multiplicity
 _atom_site_fract_x
 _atom_site_fract_y
 _atom_site_fract_z
 _atom_site_occupancy
  Mo  Mo0  1  7.24877000  0.07464900  3.60819000  1
  Mo  Mo1  1  1.79190000  1.87758000  0.01230320  1
  Mo  Mo2  1  1.81415000  0.00159241  1.77202000  1
  Mo  Mo3  1  0.02133970  1.83971000  1.75715000  1
  Mo  Mo4  1  3.55865000  7.28742000  0.00000214  1
  Mo  Mo5  1  5.41245000  1.77724000  0.07490720  1
  Mo  Mo6  1  5.48677000  -0.01972990  1.94459000  1
  Mo  Mo7  1  3.62730000  1.80463000  1.92545000  1
  Mo  Mo8  1  0.04695930  3.63967000  3.61924000  1
  Mo  Mo9  1  1.75659000  5.37913000  3.64571000  1
  Mo  Mo10  1  1.84679000  3.69637000  1.82544000  1
  Mo  Mo11  1  7.24271000  5.44604000  1.75506000  1
  Mo  Mo12  1  3.71895000  3.64062000  -0.03145280  1
  Mo  Mo13  1  5.46120000  5.45415000  3.59288000  1
  Mo  Mo14  1  5.49681000  3.53852000  1.74343000  1
  Mo  Mo15  1  3.69267000  5.50404000  1.86709000  1
