# generated using pymatgen
data_Mo
_symmetry_space_group_name_H-M   'P 1'
_cell_length_a   7.27808089
_cell_length_b   7.27808089
_cell_length_c   3.63904047
_cell_angle_alpha   90.00000000
_cell_angle_beta   90.00000000
_cell_angle_gamma   90.00000000
_symmetry_Int_Tables_number   1
_chemical_formula_structural   Mo
_chemical_formula_sum   Mo16
_cell_volume   192.76165285
_cell_formula_units_Z   16
loop_
 _symmetry_equiv_pos_site_id
 _symmetry_equiv_pos_as_xyz
  1  'x, y, z'
loop_
 _atom_site_type_symbol
 _atom_site_label
 _atom_site_symmetry_multiplicity
 _atom_site_fract_x
 _atom_site_fract_y
 _atom_site_fract_z
 _atom_site_occupancy
  Mo  Mo0  1  -0.00538808  7.26579000  -0.00241314  1
  Mo  Mo1  1  1.82169000  1.81384000  0.00443182  1
  Mo  Mo2  1  1.81546000  7.27583000  1.82097000  1
  Mo  Mo3  1  7.27523000  1.83115000  1.81642000  1
  Mo  Mo4  1  3.63806000  7.27228000  3.63406000  1
  Mo  Mo5  1  5.45001000  1.82423000  0.00362207  1
  Mo  Mo6  1  5.46768000  0.01275740  1.83623000  1
  Mo  Mo7  1  3.63487000  1.82105000  1.81831000  1
  Mo  Mo8  1  7.27921000  3.64061000  3.65223000  1
  Mo  Mo9  1  1.81754000  5.45391000  3.63195000  1
  Mo  Mo10  1  1.82206000  3.63027000  1.81962000  1
  Mo  Mo11  1  7.27487000  5.45554000  1.82352000  1
  Mo  Mo12  1  3.64408000  3.63995000  -0.00118511  1
  Mo  Mo13  1  5.45955000  5.46108000  3.63312000  1
  Mo  Mo14  1  5.46457000  3.64140000  1.80906000  1
  Mo  Mo15  1  3.64260000  5.46239000  1.81207000  1
