# generated using pymatgen
data_Mo
_symmetry_space_group_name_H-M   'P 1'
_cell_length_a   7.28235037
_cell_length_b   7.28235037
_cell_length_c   3.64117527
_cell_angle_alpha   90.00000000
_cell_angle_beta   90.00000000
_cell_angle_gamma   90.00000000
_symmetry_Int_Tables_number   1
_chemical_formula_structural   Mo
_chemical_formula_sum   Mo16
_cell_volume   193.10108955
_cell_formula_units_Z   16
loop_
 _symmetry_equiv_pos_site_id
 _symmetry_equiv_pos_as_xyz
  1  'x, y, z'
loop_
 _atom_site_type_symbol
 _atom_site_label
 _atom_site_symmetry_multiplicity
 _atom_site_fract_x
 _atom_site_fract_y
 _atom_site_fract_z
 _atom_site_occupancy
  Mo  Mo0  1  7.25411000  0.14550000  3.58297000  1
  Mo  Mo1  1  1.86784000  1.74308000  0.03434110  1
  Mo  Mo2  1  1.85961000  -0.01815700  1.78554000  1
  Mo  Mo3  1  0.06944700  1.88372000  1.83530000  1
  Mo  Mo4  1  3.70903000  7.23609000  0.05154570  1
  Mo  Mo5  1  5.44805000  1.85177000  0.09356190  1
  Mo  Mo6  1  5.59681000  -0.05300390  1.84588000  1
  Mo  Mo7  1  3.73467000  1.79019000  1.86627000  1
  Mo  Mo8  1  -0.06254720  3.60978000  3.56248000  1
  Mo  Mo9  1  1.75514000  5.51225000  3.57629000  1
  Mo  Mo10  1  1.82143000  3.58374000  1.85471000  1
  Mo  Mo11  1  7.16338000  5.46740000  1.80092000  1
  Mo  Mo12  1  3.58816000  3.63381000  0.04089390  1
  Mo  Mo13  1  5.45789000  5.45413000  3.62610000  1
  Mo  Mo14  1  5.38739000  3.66661000  1.80276000  1
  Mo  Mo15  1  3.57358000  5.43475000  1.75244000  1
