# generated using pymatgen
data_Mo
_symmetry_space_group_name_H-M   'P 1'
_cell_length_a   7.28235037
_cell_length_b   7.28235037
_cell_length_c   3.64117527
_cell_angle_alpha   90.00000000
_cell_angle_beta   90.00000000
_cell_angle_gamma   90.00000000
_symmetry_Int_Tables_number   1
_chemical_formula_structural   Mo
_chemical_formula_sum   Mo16
_cell_volume   193.10108955
_cell_formula_units_Z   16
loop_
 _symmetry_equiv_pos_site_id
 _symmetry_equiv_pos_as_xyz
  1  'x, y, z'
loop_
 _atom_site_type_symbol
 _atom_site_label
 _atom_site_symmetry_multiplicity
 _atom_site_fract_x
 _atom_site_fract_y
 _atom_site_fract_z
 _atom_site_occupancy
  Mo  Mo0  1  7.23761000  0.00052622  3.61487000  1
  Mo  Mo1  1  1.79600000  1.84779000  0.01950420  1
  Mo  Mo2  1  1.74100000  0.05985970  1.80510000  1
  Mo  Mo3  1  0.04307650  1.82512000  1.81900000  1
  Mo  Mo4  1  3.58043000  7.22365000  0.05171600  1
  Mo  Mo5  1  5.49240000  1.85316000  0.06147100  1
  Mo  Mo6  1  5.41061000  0.03360290  1.92467000  1
  Mo  Mo7  1  3.67120000  1.76391000  1.87007000  1
  Mo  Mo8  1  0.06980390  3.69802000  3.54341000  1
  Mo  Mo9  1  1.81043000  5.52162000  3.57485000  1
  Mo  Mo10  1  1.89117000  3.64255000  1.89385000  1
  Mo  Mo11  1  7.25632000  5.43728000  1.74553000  1
  Mo  Mo12  1  3.65869000  3.56471000  0.04793930  1
  Mo  Mo13  1  5.43704000  5.44888000  3.57934000  1
  Mo  Mo14  1  5.47027000  3.59200000  1.77619000  1
  Mo  Mo15  1  3.65794000  5.42897000  1.78450000  1
