# generated using pymatgen
data_Mo
_symmetry_space_group_name_H-M   'P 1'
_cell_length_a   7.28235037
_cell_length_b   7.28235037
_cell_length_c   3.64117527
_cell_angle_alpha   90.00000000
_cell_angle_beta   90.00000000
_cell_angle_gamma   90.00000000
_symmetry_Int_Tables_number   1
_chemical_formula_structural   Mo
_chemical_formula_sum   Mo16
_cell_volume   193.10108955
_cell_formula_units_Z   16
loop_
 _symmetry_equiv_pos_site_id
 _symmetry_equiv_pos_as_xyz
  1  'x, y, z'
loop_
 _atom_site_type_symbol
 _atom_site_label
 _atom_site_symmetry_multiplicity
 _atom_site_fract_x
 _atom_site_fract_y
 _atom_site_fract_z
 _atom_site_occupancy
  Mo  Mo0  1  7.30604000  0.01763650  3.68012000  1
  Mo  Mo1  1  1.92839000  1.75240000  0.04680430  1
  Mo  Mo2  1  1.80922000  0.01261200  1.82679000  1
  Mo  Mo3  1  -0.03511950  1.83656000  1.80659000  1
  Mo  Mo4  1  3.72779000  7.16575000  -0.05511130  1
  Mo  Mo5  1  5.48418000  1.91426000  0.02672340  1
  Mo  Mo6  1  5.49727000  0.07554740  1.80341000  1
  Mo  Mo7  1  3.65391000  1.76516000  1.96132000  1
  Mo  Mo8  1  -0.02126010  3.58090000  3.64839000  1
  Mo  Mo9  1  1.71850000  5.48044000  3.53694000  1
  Mo  Mo10  1  1.79272000  3.60034000  1.72943000  1
  Mo  Mo11  1  7.27447000  5.47606000  1.73489000  1
  Mo  Mo12  1  3.57909000  3.67164000  0.07138690  1
  Mo  Mo13  1  5.46784000  5.43517000  3.60775000  1
  Mo  Mo14  1  5.38441000  3.67971000  1.90671000  1
  Mo  Mo15  1  3.65654000  5.47745000  1.77987000  1
