# generated using pymatgen
data_Mo
_symmetry_space_group_name_H-M   'P 1'
_cell_length_a   7.28235037
_cell_length_b   7.28235037
_cell_length_c   3.64117527
_cell_angle_alpha   90.00000000
_cell_angle_beta   90.00000000
_cell_angle_gamma   90.00000000
_symmetry_Int_Tables_number   1
_chemical_formula_structural   Mo
_chemical_formula_sum   Mo16
_cell_volume   193.10108955
_cell_formula_units_Z   16
loop_
 _symmetry_equiv_pos_site_id
 _symmetry_equiv_pos_as_xyz
  1  'x, y, z'
loop_
 _atom_site_type_symbol
 _atom_site_label
 _atom_site_symmetry_multiplicity
 _atom_site_fract_x
 _atom_site_fract_y
 _atom_site_fract_z
 _atom_site_occupancy
  Mo  Mo0  1  7.28802000  0.06069570  3.67454000  1
  Mo  Mo1  1  1.86551000  1.81232000  0.10944500  1
  Mo  Mo2  1  1.85313000  0.03543370  1.86610000  1
  Mo  Mo3  1  0.02556580  1.79796000  1.81395000  1
  Mo  Mo4  1  3.70025000  7.24844000  0.03421250  1
  Mo  Mo5  1  5.43755000  1.89966000  -0.00181097  1
  Mo  Mo6  1  5.43299000  -0.01272120  1.81036000  1
  Mo  Mo7  1  3.72440000  1.79608000  1.82710000  1
  Mo  Mo8  1  -0.00424929  3.61615000  3.66439000  1
  Mo  Mo9  1  1.80427000  5.41142000  3.61913000  1
  Mo  Mo10  1  1.74431000  3.62622000  1.75958000  1
  Mo  Mo11  1  7.23266000  5.49288000  1.76515000  1
  Mo  Mo12  1  3.59353000  3.61750000  -0.05388410  1
  Mo  Mo13  1  5.46088000  5.48538000  3.59620000  1
  Mo  Mo14  1  5.47729000  3.65057000  1.82577000  1
  Mo  Mo15  1  3.58789000  5.40367000  1.80176000  1
