# generated using pymatgen
data_Mo
_symmetry_space_group_name_H-M   'P 1'
_cell_length_a   7.28235037
_cell_length_b   7.28235037
_cell_length_c   3.64117527
_cell_angle_alpha   90.00000000
_cell_angle_beta   90.00000000
_cell_angle_gamma   90.00000000
_symmetry_Int_Tables_number   1
_chemical_formula_structural   Mo
_chemical_formula_sum   Mo16
_cell_volume   193.10108955
_cell_formula_units_Z   16
loop_
 _symmetry_equiv_pos_site_id
 _symmetry_equiv_pos_as_xyz
  1  'x, y, z'
loop_
 _atom_site_type_symbol
 _atom_site_label
 _atom_site_symmetry_multiplicity
 _atom_site_fract_x
 _atom_site_fract_y
 _atom_site_fract_z
 _atom_site_occupancy
  Mo  Mo0  1  7.24409000  0.01732720  3.66802000  1
  Mo  Mo1  1  1.67903000  1.77762000  0.01997030  1
  Mo  Mo2  1  1.91643000  0.02141470  1.87900000  1
  Mo  Mo3  1  -0.10784900  1.77986000  1.74917000  1
  Mo  Mo4  1  3.66301000  7.37365000  -0.04631190  1
  Mo  Mo5  1  5.36172000  1.84890000  -0.03919880  1
  Mo  Mo6  1  5.43798000  -0.04726340  1.78861000  1
  Mo  Mo7  1  3.62905000  1.89956000  1.76175000  1
  Mo  Mo8  1  0.06479490  3.66401000  3.65469000  1
  Mo  Mo9  1  1.89116000  5.41258000  3.64601000  1
  Mo  Mo10  1  1.81326000  3.58861000  1.73736000  1
  Mo  Mo11  1  7.36243000  5.47627000  1.87390000  1
  Mo  Mo12  1  3.66731000  3.53066000  -0.02383740  1
  Mo  Mo13  1  5.48547000  5.46037000  3.69833000  1
  Mo  Mo14  1  5.50724000  3.65791000  1.86434000  1
  Mo  Mo15  1  3.60888000  5.48017000  1.88020000  1
