# generated using pymatgen
data_Mo
_symmetry_space_group_name_H-M   'P 1'
_cell_length_a   7.28235037
_cell_length_b   7.28235037
_cell_length_c   3.64117527
_cell_angle_alpha   90.00000000
_cell_angle_beta   90.00000000
_cell_angle_gamma   90.00000000
_symmetry_Int_Tables_number   1
_chemical_formula_structural   Mo
_chemical_formula_sum   Mo16
_cell_volume   193.10108955
_cell_formula_units_Z   16
loop_
 _symmetry_equiv_pos_site_id
 _symmetry_equiv_pos_as_xyz
  1  'x, y, z'
loop_
 _atom_site_type_symbol
 _atom_site_label
 _atom_site_symmetry_multiplicity
 _atom_site_fract_x
 _atom_site_fract_y
 _atom_site_fract_z
 _atom_site_occupancy
  Mo  Mo0  1  7.18749000  -0.02030950  3.59350000  1
  Mo  Mo1  1  1.81858000  1.77918000  -0.00289210  1
  Mo  Mo2  1  1.73253000  0.03617260  1.78420000  1
  Mo  Mo3  1  -0.01579910  1.81743000  1.78055000  1
  Mo  Mo4  1  3.68940000  7.25043000  0.00160666  1
  Mo  Mo5  1  5.39454000  1.84711000  -0.07890510  1
  Mo  Mo6  1  5.39235000  -0.05248580  1.86001000  1
  Mo  Mo7  1  3.65082000  1.80730000  1.77128000  1
  Mo  Mo8  1  0.11123200  3.56921000  3.70290000  1
  Mo  Mo9  1  1.85458000  5.53233000  3.66487000  1
  Mo  Mo10  1  1.81577000  3.68110000  1.85832000  1
  Mo  Mo11  1  7.31806000  5.42096000  1.87470000  1
  Mo  Mo12  1  3.63514000  3.66108000  -0.01934350  1
  Mo  Mo13  1  5.54819000  5.44936000  3.63935000  1
  Mo  Mo14  1  5.51932000  3.67649000  1.85047000  1
  Mo  Mo15  1  3.57180000  5.48627000  1.83139000  1
