# generated using pymatgen
data_Mo
_symmetry_space_group_name_H-M   'P 1'
_cell_length_a   7.28235037
_cell_length_b   7.28235037
_cell_length_c   3.64117527
_cell_angle_alpha   90.00000000
_cell_angle_beta   90.00000000
_cell_angle_gamma   90.00000000
_symmetry_Int_Tables_number   1
_chemical_formula_structural   Mo
_chemical_formula_sum   Mo16
_cell_volume   193.10108955
_cell_formula_units_Z   16
loop_
 _symmetry_equiv_pos_site_id
 _symmetry_equiv_pos_as_xyz
  1  'x, y, z'
loop_
 _atom_site_type_symbol
 _atom_site_label
 _atom_site_symmetry_multiplicity
 _atom_site_fract_x
 _atom_site_fract_y
 _atom_site_fract_z
 _atom_site_occupancy
  Mo  Mo0  1  7.30374000  -0.00760378  3.70267000  1
  Mo  Mo1  1  1.81891000  1.78073000  0.01396660  1
  Mo  Mo2  1  1.83576000  0.05822580  1.78776000  1
  Mo  Mo3  1  -0.05257650  1.75537000  1.80119000  1
  Mo  Mo4  1  3.67959000  7.28205000  -0.11790500  1
  Mo  Mo5  1  5.41136000  1.92414000  -0.03822710  1
  Mo  Mo6  1  5.50143000  -0.02593500  1.78143000  1
  Mo  Mo7  1  3.63591000  1.87403000  1.71166000  1
  Mo  Mo8  1  -0.03157240  3.56147000  3.72878000  1
  Mo  Mo9  1  1.87694000  5.47458000  3.74304000  1
  Mo  Mo10  1  1.77470000  3.62654000  1.86728000  1
  Mo  Mo11  1  7.28425000  5.45824000  1.88601000  1
  Mo  Mo12  1  3.56417000  3.65021000  0.01700020  1
  Mo  Mo13  1  5.57186000  5.43393000  3.60054000  1
  Mo  Mo14  1  5.46351000  3.65965000  1.83561000  1
  Mo  Mo15  1  3.58601000  5.43602000  1.79119000  1
