# generated using pymatgen
data_Mo
_symmetry_space_group_name_H-M   'P 1'
_cell_length_a   7.28235037
_cell_length_b   7.28235037
_cell_length_c   3.64117527
_cell_angle_alpha   90.00000000
_cell_angle_beta   90.00000000
_cell_angle_gamma   90.00000000
_symmetry_Int_Tables_number   1
_chemical_formula_structural   Mo
_chemical_formula_sum   Mo16
_cell_volume   193.10108955
_cell_formula_units_Z   16
loop_
 _symmetry_equiv_pos_site_id
 _symmetry_equiv_pos_as_xyz
  1  'x, y, z'
loop_
 _atom_site_type_symbol
 _atom_site_label
 _atom_site_symmetry_multiplicity
 _atom_site_fract_x
 _atom_site_fract_y
 _atom_site_fract_z
 _atom_site_occupancy
  Mo  Mo0  1  7.29547000  -0.07522960  3.66095000  1
  Mo  Mo1  1  1.74725000  1.86562000  0.02654530  1
  Mo  Mo2  1  1.79167000  -0.08577570  1.87676000  1
  Mo  Mo3  1  -0.01284110  1.78299000  1.91227000  1
  Mo  Mo4  1  3.65058000  7.33014000  -0.01689500  1
  Mo  Mo5  1  5.44169000  1.84160000  -0.09574370  1
  Mo  Mo6  1  5.39150000  0.00242116  1.65164000  1
  Mo  Mo7  1  3.58772000  1.80233000  1.76315000  1
  Mo  Mo8  1  0.05850140  3.68072000  3.73618000  1
  Mo  Mo9  1  1.85407000  5.45113000  3.65626000  1
  Mo  Mo10  1  1.84052000  3.67365000  1.86593000  1
  Mo  Mo11  1  7.28907000  5.49404000  1.91463000  1
  Mo  Mo12  1  3.65969000  3.66868000  -0.08236350  1
  Mo  Mo13  1  5.43420000  5.47969000  3.67260000  1
  Mo  Mo14  1  5.52216000  3.55962000  1.76508000  1
  Mo  Mo15  1  3.67277000  5.47002000  1.80501000  1
