# generated using pymatgen
data_Mo
_symmetry_space_group_name_H-M   'P 1'
_cell_length_a   7.28235037
_cell_length_b   7.28235037
_cell_length_c   3.64117527
_cell_angle_alpha   90.00000000
_cell_angle_beta   90.00000000
_cell_angle_gamma   90.00000000
_symmetry_Int_Tables_number   1
_chemical_formula_structural   Mo
_chemical_formula_sum   Mo16
_cell_volume   193.10108955
_cell_formula_units_Z   16
loop_
 _symmetry_equiv_pos_site_id
 _symmetry_equiv_pos_as_xyz
  1  'x, y, z'
loop_
 _atom_site_type_symbol
 _atom_site_label
 _atom_site_symmetry_multiplicity
 _atom_site_fract_x
 _atom_site_fract_y
 _atom_site_fract_z
 _atom_site_occupancy
  Mo  Mo0  1  7.30006000  0.03320430  3.62760000  1
  Mo  Mo1  1  1.80015000  1.86537000  0.02415610  1
  Mo  Mo2  1  1.74700000  0.03584070  1.86430000  1
  Mo  Mo3  1  -0.04780770  1.78999000  1.83664000  1
  Mo  Mo4  1  3.59840000  7.31168000  -0.09641880  1
  Mo  Mo5  1  5.37897000  1.83930000  -0.08030940  1
  Mo  Mo6  1  5.42369000  -0.03849520  1.73677000  1
  Mo  Mo7  1  3.63693000  1.84671000  1.77317000  1
  Mo  Mo8  1  -0.00074540  3.62941000  3.77169000  1
  Mo  Mo9  1  1.79619000  5.40612000  3.66130000  1
  Mo  Mo10  1  1.90113000  3.58055000  1.85745000  1
  Mo  Mo11  1  7.32911000  5.45073000  1.91363000  1
  Mo  Mo12  1  3.70937000  3.70647000  -0.11109300  1
  Mo  Mo13  1  5.47243000  5.47064000  3.68435000  1
  Mo  Mo14  1  5.50137000  3.55374000  1.78754000  1
  Mo  Mo15  1  3.67775000  5.46039000  1.86121000  1
