# generated using pymatgen
data_Mo
_symmetry_space_group_name_H-M   'P 1'
_cell_length_a   7.27808089
_cell_length_b   7.27808089
_cell_length_c   3.63904047
_cell_angle_alpha   90.00000000
_cell_angle_beta   90.00000000
_cell_angle_gamma   90.00000000
_symmetry_Int_Tables_number   1
_chemical_formula_structural   Mo
_chemical_formula_sum   Mo16
_cell_volume   192.76165285
_cell_formula_units_Z   16
loop_
 _symmetry_equiv_pos_site_id
 _symmetry_equiv_pos_as_xyz
  1  'x, y, z'
loop_
 _atom_site_type_symbol
 _atom_site_label
 _atom_site_symmetry_multiplicity
 _atom_site_fract_x
 _atom_site_fract_y
 _atom_site_fract_z
 _atom_site_occupancy
  Mo  Mo0  1  -0.00693775  7.27148000  -0.00130835  1
  Mo  Mo1  1  1.81577000  1.81534000  -0.01050740  1
  Mo  Mo2  1  1.83085000  7.27117000  1.82561000  1
  Mo  Mo3  1  7.26631000  1.81806000  1.81673000  1
  Mo  Mo4  1  3.62622000  7.27747000  3.63447000  1
  Mo  Mo5  1  5.45172000  1.82093000  -0.00812681  1
  Mo  Mo6  1  5.46551000  0.00048459  1.82181000  1
  Mo  Mo7  1  3.64065000  1.83263000  1.81267000  1
  Mo  Mo8  1  7.28767000  3.63618000  3.63562000  1
  Mo  Mo9  1  1.82492000  5.45062000  3.64612000  1
  Mo  Mo10  1  1.80984000  3.64588000  1.81651000  1
  Mo  Mo11  1  7.28413000  5.46368000  1.81227000  1
  Mo  Mo12  1  3.64782000  3.62937000  0.01113510  1
  Mo  Mo13  1  5.46363000  5.46129000  3.65172000  1
  Mo  Mo14  1  5.45305000  3.64875000  1.81908000  1
  Mo  Mo15  1  3.64094000  5.45876000  1.82818000  1
