# generated using pymatgen
data_Mo
_symmetry_space_group_name_H-M   'P 1'
_cell_length_a   7.28235037
_cell_length_b   7.28235037
_cell_length_c   3.64117527
_cell_angle_alpha   90.00000000
_cell_angle_beta   90.00000000
_cell_angle_gamma   90.00000000
_symmetry_Int_Tables_number   1
_chemical_formula_structural   Mo
_chemical_formula_sum   Mo16
_cell_volume   193.10108955
_cell_formula_units_Z   16
loop_
 _symmetry_equiv_pos_site_id
 _symmetry_equiv_pos_as_xyz
  1  'x, y, z'
loop_
 _atom_site_type_symbol
 _atom_site_label
 _atom_site_symmetry_multiplicity
 _atom_site_fract_x
 _atom_site_fract_y
 _atom_site_fract_z
 _atom_site_occupancy
  Mo  Mo0  1  7.22355000  0.04695420  3.66339000  1
  Mo  Mo1  1  1.90849000  1.83646000  0.00912431  1
  Mo  Mo2  1  1.87397000  -0.01623310  1.90269000  1
  Mo  Mo3  1  -0.02085950  1.86662000  1.88463000  1
  Mo  Mo4  1  3.65070000  7.22716000  0.09612460  1
  Mo  Mo5  1  5.50115000  1.75815000  0.04304700  1
  Mo  Mo6  1  5.39227000  0.01693420  1.78452000  1
  Mo  Mo7  1  3.66141000  1.85246000  1.89585000  1
  Mo  Mo8  1  0.00116197  3.63828000  3.52258000  1
  Mo  Mo9  1  1.74760000  5.47231000  3.56986000  1
  Mo  Mo10  1  1.81034000  3.58125000  1.71880000  1
  Mo  Mo11  1  7.27407000  5.53396000  1.74072000  1
  Mo  Mo12  1  3.66662000  3.61522000  0.02433790  1
  Mo  Mo13  1  5.42703000  5.46028000  3.64041000  1
  Mo  Mo14  1  5.50921000  3.65403000  1.82037000  1
  Mo  Mo15  1  3.59728000  5.39780000  1.79552000  1
