# generated using pymatgen
data_Mo
_symmetry_space_group_name_H-M   'P 1'
_cell_length_a   7.28235037
_cell_length_b   7.28235037
_cell_length_c   3.64117527
_cell_angle_alpha   90.00000000
_cell_angle_beta   90.00000000
_cell_angle_gamma   90.00000000
_symmetry_Int_Tables_number   1
_chemical_formula_structural   Mo
_chemical_formula_sum   Mo16
_cell_volume   193.10108955
_cell_formula_units_Z   16
loop_
 _symmetry_equiv_pos_site_id
 _symmetry_equiv_pos_as_xyz
  1  'x, y, z'
loop_
 _atom_site_type_symbol
 _atom_site_label
 _atom_site_symmetry_multiplicity
 _atom_site_fract_x
 _atom_site_fract_y
 _atom_site_fract_z
 _atom_site_occupancy
  Mo  Mo0  1  7.34541000  -0.08633370  3.67770000  1
  Mo  Mo1  1  1.83471000  1.83808000  -0.06200550  1
  Mo  Mo2  1  1.82691000  -0.03196370  1.75482000  1
  Mo  Mo3  1  -0.00864511  1.80223000  1.81259000  1
  Mo  Mo4  1  3.68176000  7.25735000  -0.04099610  1
  Mo  Mo5  1  5.42304000  1.81388000  -0.05925330  1
  Mo  Mo6  1  5.47448000  0.06530200  1.81350000  1
  Mo  Mo7  1  3.59918000  1.79707000  1.69870000  1
  Mo  Mo8  1  -0.09815770  3.61757000  3.66397000  1
  Mo  Mo9  1  1.86855000  5.47667000  3.69093000  1
  Mo  Mo10  1  1.81770000  3.65859000  1.91609000  1
  Mo  Mo11  1  7.26911000  5.37335000  1.91406000  1
  Mo  Mo12  1  3.58535000  3.69171000  0.04536630  1
  Mo  Mo13  1  5.52110000  5.52107000  3.68566000  1
  Mo  Mo14  1  5.37561000  3.64758000  1.81888000  1
  Mo  Mo15  1  3.70788000  5.49950000  1.78200000  1
