# generated using pymatgen
data_Mo
_symmetry_space_group_name_H-M   'P 1'
_cell_length_a   7.28235037
_cell_length_b   7.28235037
_cell_length_c   3.64117527
_cell_angle_alpha   90.00000000
_cell_angle_beta   90.00000000
_cell_angle_gamma   90.00000000
_symmetry_Int_Tables_number   1
_chemical_formula_structural   Mo
_chemical_formula_sum   Mo16
_cell_volume   193.10108955
_cell_formula_units_Z   16
loop_
 _symmetry_equiv_pos_site_id
 _symmetry_equiv_pos_as_xyz
  1  'x, y, z'
loop_
 _atom_site_type_symbol
 _atom_site_label
 _atom_site_symmetry_multiplicity
 _atom_site_fract_x
 _atom_site_fract_y
 _atom_site_fract_z
 _atom_site_occupancy
  Mo  Mo0  1  7.29212000  -0.04316840  3.65736000  1
  Mo  Mo1  1  1.72315000  1.76862000  -0.03297860  1
  Mo  Mo2  1  1.89158000  0.02518490  1.74430000  1
  Mo  Mo3  1  -0.03800850  1.75131000  1.76508000  1
  Mo  Mo4  1  3.67090000  7.27640000  -0.07691530  1
  Mo  Mo5  1  5.49608000  1.88873000  -0.00854592  1
  Mo  Mo6  1  5.56013000  -0.03456050  1.86745000  1
  Mo  Mo7  1  3.65830000  1.87528000  1.70717000  1
  Mo  Mo8  1  -0.01641320  3.70038000  3.69494000  1
  Mo  Mo9  1  1.85261000  5.47143000  3.72451000  1
  Mo  Mo10  1  1.79545000  3.61090000  1.92463000  1
  Mo  Mo11  1  7.29103000  5.40170000  1.89136000  1
  Mo  Mo12  1  3.58099000  3.59885000  0.00274918  1
  Mo  Mo13  1  5.44252000  5.46817000  3.65762000  1
  Mo  Mo14  1  5.42976000  3.66665000  1.77460000  1
  Mo  Mo15  1  3.59379000  5.51578000  1.81866000  1
