# generated using pymatgen
data_Mo
_symmetry_space_group_name_H-M   'P 1'
_cell_length_a   7.28235037
_cell_length_b   7.28235037
_cell_length_c   3.64117527
_cell_angle_alpha   90.00000000
_cell_angle_beta   90.00000000
_cell_angle_gamma   90.00000000
_symmetry_Int_Tables_number   1
_chemical_formula_structural   Mo
_chemical_formula_sum   Mo16
_cell_volume   193.10108955
_cell_formula_units_Z   16
loop_
 _symmetry_equiv_pos_site_id
 _symmetry_equiv_pos_as_xyz
  1  'x, y, z'
loop_
 _atom_site_type_symbol
 _atom_site_label
 _atom_site_symmetry_multiplicity
 _atom_site_fract_x
 _atom_site_fract_y
 _atom_site_fract_z
 _atom_site_occupancy
  Mo  Mo0  1  7.24468000  0.01787810  3.64063000  1
  Mo  Mo1  1  1.72404000  1.84097000  -0.04481930  1
  Mo  Mo2  1  1.76769000  -0.00997963  1.80944000  1
  Mo  Mo3  1  -0.00330428  1.83507000  1.81462000  1
  Mo  Mo4  1  3.55697000  7.26689000  0.02418360  1
  Mo  Mo5  1  5.33419000  1.81328000  -0.03545630  1
  Mo  Mo6  1  5.48144000  -0.08653580  1.84199000  1
  Mo  Mo7  1  3.61740000  1.86168000  1.70582000  1
  Mo  Mo8  1  0.04860940  3.56542000  3.66432000  1
  Mo  Mo9  1  1.88873000  5.50589000  3.68918000  1
  Mo  Mo10  1  1.89415000  3.61815000  1.90308000  1
  Mo  Mo11  1  7.33285000  5.39801000  1.92325000  1
  Mo  Mo12  1  3.73569000  3.64926000  -0.04604160  1
  Mo  Mo13  1  5.49624000  5.46904000  3.64288000  1
  Mo  Mo14  1  5.47860000  3.69467000  1.75285000  1
  Mo  Mo15  1  3.62601000  5.50195000  1.82607000  1
