# generated using pymatgen
data_Mo
_symmetry_space_group_name_H-M   'P 1'
_cell_length_a   7.28235037
_cell_length_b   7.28235037
_cell_length_c   3.64117527
_cell_angle_alpha   90.00000000
_cell_angle_beta   90.00000000
_cell_angle_gamma   90.00000000
_symmetry_Int_Tables_number   1
_chemical_formula_structural   Mo
_chemical_formula_sum   Mo16
_cell_volume   193.10108955
_cell_formula_units_Z   16
loop_
 _symmetry_equiv_pos_site_id
 _symmetry_equiv_pos_as_xyz
  1  'x, y, z'
loop_
 _atom_site_type_symbol
 _atom_site_label
 _atom_site_symmetry_multiplicity
 _atom_site_fract_x
 _atom_site_fract_y
 _atom_site_fract_z
 _atom_site_occupancy
  Mo  Mo0  1  7.29082000  -0.02749720  3.63161000  1
  Mo  Mo1  1  1.73582000  1.84945000  0.00009893  1
  Mo  Mo2  1  1.79641000  0.04171200  1.78651000  1
  Mo  Mo3  1  -0.00541962  1.83142000  1.83101000  1
  Mo  Mo4  1  3.58543000  7.30828000  0.02290940  1
  Mo  Mo5  1  5.46650000  1.74899000  0.04107550  1
  Mo  Mo6  1  5.42744000  -0.04307220  1.86976000  1
  Mo  Mo7  1  3.63851000  1.84210000  1.89103000  1
  Mo  Mo8  1  0.02919320  3.63083000  3.65980000  1
  Mo  Mo9  1  1.85555000  5.49586000  3.64021000  1
  Mo  Mo10  1  1.82081000  3.67053000  1.79950000  1
  Mo  Mo11  1  7.25545000  5.51290000  1.75041000  1
  Mo  Mo12  1  3.72875000  3.63941000  -0.05155290  1
  Mo  Mo13  1  5.41749000  5.40127000  3.57209000  1
  Mo  Mo14  1  5.51316000  3.64803000  1.78926000  1
  Mo  Mo15  1  3.66808000  5.39142000  1.87828000  1
