# generated using pymatgen
data_Mo
_symmetry_space_group_name_H-M   'P 1'
_cell_length_a   7.28235037
_cell_length_b   7.28235037
_cell_length_c   3.64117527
_cell_angle_alpha   90.00000000
_cell_angle_beta   90.00000000
_cell_angle_gamma   90.00000000
_symmetry_Int_Tables_number   1
_chemical_formula_structural   Mo
_chemical_formula_sum   Mo16
_cell_volume   193.10108955
_cell_formula_units_Z   16
loop_
 _symmetry_equiv_pos_site_id
 _symmetry_equiv_pos_as_xyz
  1  'x, y, z'
loop_
 _atom_site_type_symbol
 _atom_site_label
 _atom_site_symmetry_multiplicity
 _atom_site_fract_x
 _atom_site_fract_y
 _atom_site_fract_z
 _atom_site_occupancy
  Mo  Mo0  1  7.39594000  0.01898940  3.61627000  1
  Mo  Mo1  1  1.87348000  1.84276000  -0.04382310  1
  Mo  Mo2  1  1.76737000  -0.05131440  1.82788000  1
  Mo  Mo3  1  0.07036630  1.84209000  1.91500000  1
  Mo  Mo4  1  3.64012000  7.24033000  0.05671830  1
  Mo  Mo5  1  5.49682000  1.75415000  -0.01632180  1
  Mo  Mo6  1  5.45163000  0.07799880  1.78371000  1
  Mo  Mo7  1  3.60177000  1.81610000  1.80781000  1
  Mo  Mo8  1  -0.08371980  3.60928000  3.65407000  1
  Mo  Mo9  1  1.76572000  5.43615000  3.62335000  1
  Mo  Mo10  1  1.76431000  3.65547000  1.85755000  1
  Mo  Mo11  1  7.26929000  5.48133000  1.87823000  1
  Mo  Mo12  1  3.66379000  3.65602000  -0.02104140  1
  Mo  Mo13  1  5.48596000  5.49082000  3.61094000  1
  Mo  Mo14  1  5.42547000  3.69195000  1.80208000  1
  Mo  Mo15  1  3.63571000  5.37952000  1.75957000  1
