# generated using pymatgen
data_Mo
_symmetry_space_group_name_H-M   'P 1'
_cell_length_a   7.28235037
_cell_length_b   7.28235037
_cell_length_c   3.64117527
_cell_angle_alpha   90.00000000
_cell_angle_beta   90.00000000
_cell_angle_gamma   90.00000000
_symmetry_Int_Tables_number   1
_chemical_formula_structural   Mo
_chemical_formula_sum   Mo16
_cell_volume   193.10108955
_cell_formula_units_Z   16
loop_
 _symmetry_equiv_pos_site_id
 _symmetry_equiv_pos_as_xyz
  1  'x, y, z'
loop_
 _atom_site_type_symbol
 _atom_site_label
 _atom_site_symmetry_multiplicity
 _atom_site_fract_x
 _atom_site_fract_y
 _atom_site_fract_z
 _atom_site_occupancy
  Mo  Mo0  1  7.24931000  0.06835230  3.55542000  1
  Mo  Mo1  1  1.82079000  1.72189000  0.00547288  1
  Mo  Mo2  1  1.81611000  -0.07971770  1.81060000  1
  Mo  Mo3  1  0.00317216  1.84005000  1.89675000  1
  Mo  Mo4  1  3.68173000  7.29778000  0.01892250  1
  Mo  Mo5  1  5.33244000  1.86170000  0.07634120  1
  Mo  Mo6  1  5.49365000  0.00595455  1.79426000  1
  Mo  Mo7  1  3.67648000  1.80074000  1.80961000  1
  Mo  Mo8  1  0.04040260  3.62639000  3.60195000  1
  Mo  Mo9  1  1.78521000  5.45687000  3.58632000  1
  Mo  Mo10  1  1.82429000  3.63740000  1.81425000  1
  Mo  Mo11  1  7.30850000  5.39066000  1.79408000  1
  Mo  Mo12  1  3.58799000  3.71008000  0.01607850  1
  Mo  Mo13  1  5.53883000  5.46437000  3.64979000  1
  Mo  Mo14  1  5.44366000  3.65421000  1.88222000  1
  Mo  Mo15  1  3.62144000  5.48492000  1.79993000  1
