# generated using pymatgen
data_Mo
_symmetry_space_group_name_H-M   'P 1'
_cell_length_a   7.28235037
_cell_length_b   7.28235037
_cell_length_c   3.64117527
_cell_angle_alpha   90.00000000
_cell_angle_beta   90.00000000
_cell_angle_gamma   90.00000000
_symmetry_Int_Tables_number   1
_chemical_formula_structural   Mo
_chemical_formula_sum   Mo16
_cell_volume   193.10108955
_cell_formula_units_Z   16
loop_
 _symmetry_equiv_pos_site_id
 _symmetry_equiv_pos_as_xyz
  1  'x, y, z'
loop_
 _atom_site_type_symbol
 _atom_site_label
 _atom_site_symmetry_multiplicity
 _atom_site_fract_x
 _atom_site_fract_y
 _atom_site_fract_z
 _atom_site_occupancy
  Mo  Mo0  1  7.31934000  -0.05398200  3.58913000  1
  Mo  Mo1  1  1.79140000  1.78785000  0.02025210  1
  Mo  Mo2  1  1.83511000  -0.05235310  1.78309000  1
  Mo  Mo3  1  0.01949210  1.81889000  1.73347000  1
  Mo  Mo4  1  3.68658000  7.29106000  0.03608210  1
  Mo  Mo5  1  5.48122000  1.82939000  0.04809510  1
  Mo  Mo6  1  5.44714000  0.04108500  1.95775000  1
  Mo  Mo7  1  3.61344000  1.88070000  1.82293000  1
  Mo  Mo8  1  -0.05073930  3.62823000  3.68605000  1
  Mo  Mo9  1  1.89057000  5.43938000  3.65035000  1
  Mo  Mo10  1  1.73659000  3.66616000  1.81081000  1
  Mo  Mo11  1  7.25075000  5.42129000  1.76759000  1
  Mo  Mo12  1  3.64160000  3.60332000  -0.04200920  1
  Mo  Mo13  1  5.43446000  5.50664000  3.63419000  1
  Mo  Mo14  1  5.41469000  3.65520000  1.79810000  1
  Mo  Mo15  1  3.71236000  5.47880000  1.81611000  1
