# generated using pymatgen
data_Mo
_symmetry_space_group_name_H-M   'P 1'
_cell_length_a   7.28235037
_cell_length_b   7.28235037
_cell_length_c   3.64117527
_cell_angle_alpha   90.00000000
_cell_angle_beta   90.00000000
_cell_angle_gamma   90.00000000
_symmetry_Int_Tables_number   1
_chemical_formula_structural   Mo
_chemical_formula_sum   Mo16
_cell_volume   193.10108955
_cell_formula_units_Z   16
loop_
 _symmetry_equiv_pos_site_id
 _symmetry_equiv_pos_as_xyz
  1  'x, y, z'
loop_
 _atom_site_type_symbol
 _atom_site_label
 _atom_site_symmetry_multiplicity
 _atom_site_fract_x
 _atom_site_fract_y
 _atom_site_fract_z
 _atom_site_occupancy
  Mo  Mo0  1  7.30021000  -0.07286820  3.68361000  1
  Mo  Mo1  1  1.78548000  1.79462000  -0.08126110  1
  Mo  Mo2  1  1.81374000  0.05613840  1.78716000  1
  Mo  Mo3  1  -0.06038560  1.75895000  1.81371000  1
  Mo  Mo4  1  3.66739000  7.33120000  -0.02710200  1
  Mo  Mo5  1  5.47823000  1.86223000  -0.08770580  1
  Mo  Mo6  1  5.38203000  0.05426660  1.84529000  1
  Mo  Mo7  1  3.62948000  1.83416000  1.76422000  1
  Mo  Mo8  1  -0.03033950  3.64236000  3.61096000  1
  Mo  Mo9  1  1.91372000  5.45985000  3.68153000  1
  Mo  Mo10  1  1.73369000  3.53277000  1.89360000  1
  Mo  Mo11  1  7.41634000  5.46753000  1.92401000  1
  Mo  Mo12  1  3.57500000  3.65227000  0.01978040  1
  Mo  Mo13  1  5.46195000  5.47556000  3.71078000  1
  Mo  Mo14  1  5.46528000  3.69740000  1.78401000  1
  Mo  Mo15  1  3.69219000  5.39521000  1.78942000  1
