# generated using pymatgen
data_Mo
_symmetry_space_group_name_H-M   'P 1'
_cell_length_a   7.27808089
_cell_length_b   7.27808089
_cell_length_c   3.63904047
_cell_angle_alpha   90.00000000
_cell_angle_beta   90.00000000
_cell_angle_gamma   90.00000000
_symmetry_Int_Tables_number   1
_chemical_formula_structural   Mo
_chemical_formula_sum   Mo16
_cell_volume   192.76165285
_cell_formula_units_Z   16
loop_
 _symmetry_equiv_pos_site_id
 _symmetry_equiv_pos_as_xyz
  1  'x, y, z'
loop_
 _atom_site_type_symbol
 _atom_site_label
 _atom_site_symmetry_multiplicity
 _atom_site_fract_x
 _atom_site_fract_y
 _atom_site_fract_z
 _atom_site_occupancy
  Mo  Mo0  1  -0.01401170  7.27877000  -0.01311920  1
  Mo  Mo1  1  1.80584000  1.81785000  -0.00568886  1
  Mo  Mo2  1  1.83795000  7.28986000  1.83002000  1
  Mo  Mo3  1  7.27692000  1.81257000  1.80387000  1
  Mo  Mo4  1  3.63560000  7.28155000  3.64250000  1
  Mo  Mo5  1  5.46749000  1.81778000  -0.00889664  1
  Mo  Mo6  1  5.46242000  0.00689052  1.81645000  1
  Mo  Mo7  1  3.63389000  1.81418000  1.81914000  1
  Mo  Mo8  1  7.27941000  3.62576000  3.64760000  1
  Mo  Mo9  1  1.81918000  5.45789000  3.63834000  1
  Mo  Mo10  1  1.80855000  3.64397000  1.81334000  1
  Mo  Mo11  1  7.28449000  5.46037000  1.81664000  1
  Mo  Mo12  1  3.65007000  3.63243000  0.01046790  1
  Mo  Mo13  1  5.46276000  5.45805000  3.65037000  1
  Mo  Mo14  1  5.44445000  3.64564000  1.82104000  1
  Mo  Mo15  1  3.64709000  5.45852000  1.82991000  1
