# generated using pymatgen
data_Mo
_symmetry_space_group_name_H-M   'P 1'
_cell_length_a   7.28235037
_cell_length_b   7.28235037
_cell_length_c   3.64117527
_cell_angle_alpha   90.00000000
_cell_angle_beta   90.00000000
_cell_angle_gamma   90.00000000
_symmetry_Int_Tables_number   1
_chemical_formula_structural   Mo
_chemical_formula_sum   Mo16
_cell_volume   193.10108955
_cell_formula_units_Z   16
loop_
 _symmetry_equiv_pos_site_id
 _symmetry_equiv_pos_as_xyz
  1  'x, y, z'
loop_
 _atom_site_type_symbol
 _atom_site_label
 _atom_site_symmetry_multiplicity
 _atom_site_fract_x
 _atom_site_fract_y
 _atom_site_fract_z
 _atom_site_occupancy
  Mo  Mo0  1  7.32621000  0.01068430  3.63899000  1
  Mo  Mo1  1  1.75609000  1.79549000  -0.00578490  1
  Mo  Mo2  1  1.83251000  -0.05220270  1.85750000  1
  Mo  Mo3  1  -0.02017890  1.78586000  1.78033000  1
  Mo  Mo4  1  3.63345000  7.33841000  -0.10989200  1
  Mo  Mo5  1  5.37306000  1.79887000  -0.07760570  1
  Mo  Mo6  1  5.54149000  -0.01925030  1.76156000  1
  Mo  Mo7  1  3.58861000  1.86341000  1.79478000  1
  Mo  Mo8  1  -0.03137470  3.60974000  3.67945000  1
  Mo  Mo9  1  1.82370000  5.40299000  3.66169000  1
  Mo  Mo10  1  1.82802000  3.67871000  1.76287000  1
  Mo  Mo11  1  7.28419000  5.42474000  1.87737000  1
  Mo  Mo12  1  3.71101000  3.70132000  -0.02226710  1
  Mo  Mo13  1  5.45395000  5.45229000  3.70862000  1
  Mo  Mo14  1  5.39278000  3.60490000  1.89180000  1
  Mo  Mo15  1  3.73047000  5.54569000  1.91259000  1
