# generated using pymatgen
data_Mo
_symmetry_space_group_name_H-M   'P 1'
_cell_length_a   7.28235037
_cell_length_b   7.28235037
_cell_length_c   3.64117527
_cell_angle_alpha   90.00000000
_cell_angle_beta   90.00000000
_cell_angle_gamma   90.00000000
_symmetry_Int_Tables_number   1
_chemical_formula_structural   Mo
_chemical_formula_sum   Mo16
_cell_volume   193.10108955
_cell_formula_units_Z   16
loop_
 _symmetry_equiv_pos_site_id
 _symmetry_equiv_pos_as_xyz
  1  'x, y, z'
loop_
 _atom_site_type_symbol
 _atom_site_label
 _atom_site_symmetry_multiplicity
 _atom_site_fract_x
 _atom_site_fract_y
 _atom_site_fract_z
 _atom_site_occupancy
  Mo  Mo0  1  7.24645000  0.04682560  3.66754000  1
  Mo  Mo1  1  1.87273000  1.77205000  0.10981500  1
  Mo  Mo2  1  1.77478000  -0.05877310  1.85145000  1
  Mo  Mo3  1  0.06498500  1.90374000  1.84722000  1
  Mo  Mo4  1  3.60364000  7.28911000  -0.00096401  1
  Mo  Mo5  1  5.50767000  1.80508000  0.04381640  1
  Mo  Mo6  1  5.48729000  -0.04142090  1.77555000  1
  Mo  Mo7  1  3.62951000  1.79560000  1.93760000  1
  Mo  Mo8  1  0.02946890  3.66012000  3.60226000  1
  Mo  Mo9  1  1.79706000  5.45961000  3.57252000  1
  Mo  Mo10  1  1.89477000  3.66057000  1.71917000  1
  Mo  Mo11  1  7.20139000  5.51988000  1.73528000  1
  Mo  Mo12  1  3.68595000  3.60583000  0.01073710  1
  Mo  Mo13  1  5.38093000  5.43343000  3.62825000  1
  Mo  Mo14  1  5.46287000  3.62903000  1.80494000  1
  Mo  Mo15  1  3.58451000  5.46096000  1.80681000  1
