# generated using pymatgen
data_Mo
_symmetry_space_group_name_H-M   'P 1'
_cell_length_a   7.28235037
_cell_length_b   7.28235037
_cell_length_c   3.64117527
_cell_angle_alpha   90.00000000
_cell_angle_beta   90.00000000
_cell_angle_gamma   90.00000000
_symmetry_Int_Tables_number   1
_chemical_formula_structural   Mo
_chemical_formula_sum   Mo16
_cell_volume   193.10108955
_cell_formula_units_Z   16
loop_
 _symmetry_equiv_pos_site_id
 _symmetry_equiv_pos_as_xyz
  1  'x, y, z'
loop_
 _atom_site_type_symbol
 _atom_site_label
 _atom_site_symmetry_multiplicity
 _atom_site_fract_x
 _atom_site_fract_y
 _atom_site_fract_z
 _atom_site_occupancy
  Mo  Mo0  1  7.23298000  -0.01543770  3.63821000  1
  Mo  Mo1  1  1.74283000  1.81161000  0.00744363  1
  Mo  Mo2  1  1.86624000  -0.03136530  1.82867000  1
  Mo  Mo3  1  -0.03813270  1.76742000  1.83483000  1
  Mo  Mo4  1  3.60149000  7.31865000  -0.03322060  1
  Mo  Mo5  1  5.44182000  1.82972000  0.02267560  1
  Mo  Mo6  1  5.43454000  -0.03007480  1.76015000  1
  Mo  Mo7  1  3.59553000  1.85159000  1.72320000  1
  Mo  Mo8  1  0.00232062  3.66341000  3.61898000  1
  Mo  Mo9  1  1.92053000  5.42837000  3.65564000  1
  Mo  Mo10  1  1.82878000  3.61451000  1.79595000  1
  Mo  Mo11  1  7.31248000  5.50070000  1.85301000  1
  Mo  Mo12  1  3.64869000  3.69671000  -0.00969446  1
  Mo  Mo13  1  5.49130000  5.45082000  3.70515000  1
  Mo  Mo14  1  5.44370000  3.64765000  1.87749000  1
  Mo  Mo15  1  3.69892000  5.43737000  1.83351000  1
