# generated using pymatgen
data_Mo
_symmetry_space_group_name_H-M   'P 1'
_cell_length_a   7.28235037
_cell_length_b   7.28235037
_cell_length_c   3.64117527
_cell_angle_alpha   90.00000000
_cell_angle_beta   90.00000000
_cell_angle_gamma   90.00000000
_symmetry_Int_Tables_number   1
_chemical_formula_structural   Mo
_chemical_formula_sum   Mo16
_cell_volume   193.10108955
_cell_formula_units_Z   16
loop_
 _symmetry_equiv_pos_site_id
 _symmetry_equiv_pos_as_xyz
  1  'x, y, z'
loop_
 _atom_site_type_symbol
 _atom_site_label
 _atom_site_symmetry_multiplicity
 _atom_site_fract_x
 _atom_site_fract_y
 _atom_site_fract_z
 _atom_site_occupancy
  Mo  Mo0  1  7.29383000  0.10678300  3.66146000  1
  Mo  Mo1  1  1.84380000  1.83211000  0.11945600  1
  Mo  Mo2  1  1.82682000  -0.04179030  1.90832000  1
  Mo  Mo3  1  0.08343610  1.85241000  1.79430000  1
  Mo  Mo4  1  3.52023000  7.21908000  -0.02895890  1
  Mo  Mo5  1  5.46074000  1.84506000  0.04180400  1
  Mo  Mo6  1  5.52516000  0.00788612  1.79827000  1
  Mo  Mo7  1  3.65806000  1.78796000  1.86518000  1
  Mo  Mo8  1  0.00319285  3.67648000  3.64277000  1
  Mo  Mo9  1  1.71301000  5.37587000  3.59604000  1
  Mo  Mo10  1  1.83737000  3.66424000  1.69914000  1
  Mo  Mo11  1  7.18821000  5.49159000  1.71818000  1
  Mo  Mo12  1  3.69435000  3.61868000  -0.03022490  1
  Mo  Mo13  1  5.44993000  5.48877000  3.63716000  1
  Mo  Mo14  1  5.49656000  3.57106000  1.85479000  1
  Mo  Mo15  1  3.62931000  5.44545000  1.83431000  1
