# generated using pymatgen
data_Mo
_symmetry_space_group_name_H-M   'P 1'
_cell_length_a   7.28235037
_cell_length_b   7.28235037
_cell_length_c   3.64117527
_cell_angle_alpha   90.00000000
_cell_angle_beta   90.00000000
_cell_angle_gamma   90.00000000
_symmetry_Int_Tables_number   1
_chemical_formula_structural   Mo
_chemical_formula_sum   Mo16
_cell_volume   193.10108955
_cell_formula_units_Z   16
loop_
 _symmetry_equiv_pos_site_id
 _symmetry_equiv_pos_as_xyz
  1  'x, y, z'
loop_
 _atom_site_type_symbol
 _atom_site_label
 _atom_site_symmetry_multiplicity
 _atom_site_fract_x
 _atom_site_fract_y
 _atom_site_fract_z
 _atom_site_occupancy
  Mo  Mo0  1  7.27136000  -0.08737690  3.72515000  1
  Mo  Mo1  1  1.74523000  1.86133000  -0.01434960  1
  Mo  Mo2  1  1.80059000  -0.02039010  1.81730000  1
  Mo  Mo3  1  -0.08977850  1.85506000  1.76222000  1
  Mo  Mo4  1  3.61796000  7.35919000  -0.07194160  1
  Mo  Mo5  1  5.39717000  1.78039000  -0.10781900  1
  Mo  Mo6  1  5.42388000  0.09846290  1.80446000  1
  Mo  Mo7  1  3.60920000  1.81491000  1.80749000  1
  Mo  Mo8  1  0.00355688  3.60270000  3.66438000  1
  Mo  Mo9  1  1.90835000  5.42694000  3.66531000  1
  Mo  Mo10  1  1.80910000  3.61073000  1.78352000  1
  Mo  Mo11  1  7.32828000  5.46348000  1.89544000  1
  Mo  Mo12  1  3.68857000  3.60048000  -0.00541485  1
  Mo  Mo13  1  5.48228000  5.49465000  3.70153000  1
  Mo  Mo14  1  5.48278000  3.65057000  1.82421000  1
  Mo  Mo15  1  3.74548000  5.43052000  1.86051000  1
