# generated using pymatgen
data_Mo
_symmetry_space_group_name_H-M   'P 1'
_cell_length_a   7.28235037
_cell_length_b   7.28235037
_cell_length_c   3.64117527
_cell_angle_alpha   90.00000000
_cell_angle_beta   90.00000000
_cell_angle_gamma   90.00000000
_symmetry_Int_Tables_number   1
_chemical_formula_structural   Mo
_chemical_formula_sum   Mo16
_cell_volume   193.10108955
_cell_formula_units_Z   16
loop_
 _symmetry_equiv_pos_site_id
 _symmetry_equiv_pos_as_xyz
  1  'x, y, z'
loop_
 _atom_site_type_symbol
 _atom_site_label
 _atom_site_symmetry_multiplicity
 _atom_site_fract_x
 _atom_site_fract_y
 _atom_site_fract_z
 _atom_site_occupancy
  Mo  Mo0  1  7.27025000  -0.00330032  3.60209000  1
  Mo  Mo1  1  1.80814000  1.86891000  -0.01877890  1
  Mo  Mo2  1  1.92130000  -0.03631750  1.82687000  1
  Mo  Mo3  1  0.01779780  1.84932000  1.87555000  1
  Mo  Mo4  1  3.65930000  7.30726000  0.12782300  1
  Mo  Mo5  1  5.52310000  1.81156000  0.01566850  1
  Mo  Mo6  1  5.50636000  0.04631410  1.76363000  1
  Mo  Mo7  1  3.65588000  1.75566000  1.88873000  1
  Mo  Mo8  1  -0.05992680  3.70129000  3.56400000  1
  Mo  Mo9  1  1.81091000  5.42175000  3.52138000  1
  Mo  Mo10  1  1.82634000  3.66162000  1.71536000  1
  Mo  Mo11  1  7.20514000  5.47828000  1.74991000  1
  Mo  Mo12  1  3.60500000  3.61099000  0.03113100  1
  Mo  Mo13  1  5.38808000  5.44215000  3.70971000  1
  Mo  Mo14  1  5.46873000  3.58385000  1.88431000  1
  Mo  Mo15  1  3.61760000  5.44229000  1.85460000  1
