# generated using pymatgen
data_Mo
_symmetry_space_group_name_H-M   'P 1'
_cell_length_a   7.28235037
_cell_length_b   7.28235037
_cell_length_c   3.64117527
_cell_angle_alpha   90.00000000
_cell_angle_beta   90.00000000
_cell_angle_gamma   90.00000000
_symmetry_Int_Tables_number   1
_chemical_formula_structural   Mo
_chemical_formula_sum   Mo16
_cell_volume   193.10108955
_cell_formula_units_Z   16
loop_
 _symmetry_equiv_pos_site_id
 _symmetry_equiv_pos_as_xyz
  1  'x, y, z'
loop_
 _atom_site_type_symbol
 _atom_site_label
 _atom_site_symmetry_multiplicity
 _atom_site_fract_x
 _atom_site_fract_y
 _atom_site_fract_z
 _atom_site_occupancy
  Mo  Mo0  1  7.27187000  0.00120698  3.64126000  1
  Mo  Mo1  1  1.71199000  1.85968000  0.03884540  1
  Mo  Mo2  1  1.84374000  -0.01301140  1.90261000  1
  Mo  Mo3  1  -0.00530888  1.81504000  1.77127000  1
  Mo  Mo4  1  3.56498000  7.28502000  -0.00836564  1
  Mo  Mo5  1  5.41260000  1.77407000  -0.01745070  1
  Mo  Mo6  1  5.48374000  -0.05924540  1.77132000  1
  Mo  Mo7  1  3.48860000  1.88105000  1.74484000  1
  Mo  Mo8  1  0.02362090  3.61253000  3.63188000  1
  Mo  Mo9  1  1.87490000  5.44779000  3.65620000  1
  Mo  Mo10  1  1.90685000  3.69390000  1.78033000  1
  Mo  Mo11  1  7.26411000  5.40374000  1.87839000  1
  Mo  Mo12  1  3.73831000  3.68104000  -0.01948870  1
  Mo  Mo13  1  5.51856000  5.43094000  3.65083000  1
  Mo  Mo14  1  5.47589000  3.59710000  1.85556000  1
  Mo  Mo15  1  3.64956000  5.53078000  1.83397000  1
