# generated using pymatgen
data_Mo
_symmetry_space_group_name_H-M   'P 1'
_cell_length_a   7.28235037
_cell_length_b   7.28235037
_cell_length_c   3.64117527
_cell_angle_alpha   90.00000000
_cell_angle_beta   90.00000000
_cell_angle_gamma   90.00000000
_symmetry_Int_Tables_number   1
_chemical_formula_structural   Mo
_chemical_formula_sum   Mo16
_cell_volume   193.10108955
_cell_formula_units_Z   16
loop_
 _symmetry_equiv_pos_site_id
 _symmetry_equiv_pos_as_xyz
  1  'x, y, z'
loop_
 _atom_site_type_symbol
 _atom_site_label
 _atom_site_symmetry_multiplicity
 _atom_site_fract_x
 _atom_site_fract_y
 _atom_site_fract_z
 _atom_site_occupancy
  Mo  Mo0  1  7.30349000  -0.05551870  3.64986000  1
  Mo  Mo1  1  1.84264000  1.83042000  0.09675950  1
  Mo  Mo2  1  1.91039000  -0.01880300  1.84253000  1
  Mo  Mo3  1  0.05601620  1.81351000  1.81244000  1
  Mo  Mo4  1  3.65732000  7.31849000  -0.04020170  1
  Mo  Mo5  1  5.52204000  1.75593000  0.00415200  1
  Mo  Mo6  1  5.46648000  -0.05303710  1.77730000  1
  Mo  Mo7  1  3.72171000  1.85092000  1.91191000  1
  Mo  Mo8  1  0.03225250  3.67631000  3.63145000  1
  Mo  Mo9  1  1.73564000  5.45960000  3.58106000  1
  Mo  Mo10  1  1.75376000  3.68681000  1.76810000  1
  Mo  Mo11  1  7.21156000  5.51749000  1.77313000  1
  Mo  Mo12  1  3.61675000  3.61097000  0.02308250  1
  Mo  Mo13  1  5.38921000  5.44666000  3.59599000  1
  Mo  Mo14  1  5.51215000  3.65903000  1.84589000  1
  Mo  Mo15  1  3.49260000  5.44289000  1.83855000  1
