# generated using pymatgen
data_Mo
_symmetry_space_group_name_H-M   'P 1'
_cell_length_a   7.28235037
_cell_length_b   7.28235037
_cell_length_c   3.64117527
_cell_angle_alpha   90.00000000
_cell_angle_beta   90.00000000
_cell_angle_gamma   90.00000000
_symmetry_Int_Tables_number   1
_chemical_formula_structural   Mo
_chemical_formula_sum   Mo16
_cell_volume   193.10108955
_cell_formula_units_Z   16
loop_
 _symmetry_equiv_pos_site_id
 _symmetry_equiv_pos_as_xyz
  1  'x, y, z'
loop_
 _atom_site_type_symbol
 _atom_site_label
 _atom_site_symmetry_multiplicity
 _atom_site_fract_x
 _atom_site_fract_y
 _atom_site_fract_z
 _atom_site_occupancy
  Mo  Mo0  1  7.23074000  0.01971600  3.60819000  1
  Mo  Mo1  1  1.74542000  1.86143000  -0.02535500  1
  Mo  Mo2  1  1.81006000  0.02850390  1.90217000  1
  Mo  Mo3  1  -0.07209740  1.76401000  1.83485000  1
  Mo  Mo4  1  3.59098000  7.29707000  0.06483730  1
  Mo  Mo5  1  5.46506000  1.82630000  0.01553020  1
  Mo  Mo6  1  5.41471000  -0.03712500  1.77278000  1
  Mo  Mo7  1  3.57230000  1.86941000  1.74802000  1
  Mo  Mo8  1  -0.04108460  3.66244000  3.62300000  1
  Mo  Mo9  1  1.91504000  5.43636000  3.65516000  1
  Mo  Mo10  1  1.85828000  3.64807000  1.75990000  1
  Mo  Mo11  1  7.30981000  5.44756000  1.82621000  1
  Mo  Mo12  1  3.70487000  3.60856000  -0.02411210  1
  Mo  Mo13  1  5.50115000  5.46707000  3.66595000  1
  Mo  Mo14  1  5.51922000  3.57835000  1.87952000  1
  Mo  Mo15  1  3.69954000  5.46392000  1.80536000  1
