# generated using pymatgen
data_Mo
_symmetry_space_group_name_H-M   'P 1'
_cell_length_a   7.28235037
_cell_length_b   7.28235037
_cell_length_c   3.64117527
_cell_angle_alpha   90.00000000
_cell_angle_beta   90.00000000
_cell_angle_gamma   90.00000000
_symmetry_Int_Tables_number   1
_chemical_formula_structural   Mo
_chemical_formula_sum   Mo16
_cell_volume   193.10108955
_cell_formula_units_Z   16
loop_
 _symmetry_equiv_pos_site_id
 _symmetry_equiv_pos_as_xyz
  1  'x, y, z'
loop_
 _atom_site_type_symbol
 _atom_site_label
 _atom_site_symmetry_multiplicity
 _atom_site_fract_x
 _atom_site_fract_y
 _atom_site_fract_z
 _atom_site_occupancy
  Mo  Mo0  1  7.36168000  0.06248020  3.56988000  1
  Mo  Mo1  1  1.77903000  1.79327000  0.03502570  1
  Mo  Mo2  1  1.86761000  -0.04944530  1.88123000  1
  Mo  Mo3  1  0.11656600  1.79071000  1.84329000  1
  Mo  Mo4  1  3.67144000  7.27487000  0.03052980  1
  Mo  Mo5  1  5.53503000  1.82622000  0.05806830  1
  Mo  Mo6  1  5.50221000  -0.01860390  1.75787000  1
  Mo  Mo7  1  3.64960000  1.82177000  1.80139000  1
  Mo  Mo8  1  -0.05300210  3.70854000  3.61172000  1
  Mo  Mo9  1  1.77047000  5.40013000  3.60307000  1
  Mo  Mo10  1  1.80542000  3.64363000  1.79497000  1
  Mo  Mo11  1  7.20891000  5.45246000  1.80909000  1
  Mo  Mo12  1  3.68860000  3.58715000  -0.00001367  1
  Mo  Mo13  1  5.35595000  5.51395000  3.63072000  1
  Mo  Mo14  1  5.38340000  3.62949000  1.89082000  1
  Mo  Mo15  1  3.58109000  5.50505000  1.79433000  1
