# generated using pymatgen
data_Mo
_symmetry_space_group_name_H-M   'P 1'
_cell_length_a   7.28235037
_cell_length_b   7.28235037
_cell_length_c   3.64117527
_cell_angle_alpha   90.00000000
_cell_angle_beta   90.00000000
_cell_angle_gamma   90.00000000
_symmetry_Int_Tables_number   1
_chemical_formula_structural   Mo
_chemical_formula_sum   Mo16
_cell_volume   193.10108955
_cell_formula_units_Z   16
loop_
 _symmetry_equiv_pos_site_id
 _symmetry_equiv_pos_as_xyz
  1  'x, y, z'
loop_
 _atom_site_type_symbol
 _atom_site_label
 _atom_site_symmetry_multiplicity
 _atom_site_fract_x
 _atom_site_fract_y
 _atom_site_fract_z
 _atom_site_occupancy
  Mo  Mo0  1  7.22008000  0.00962787  3.61063000  1
  Mo  Mo1  1  1.77557000  1.82169000  -0.03452970  1
  Mo  Mo2  1  1.75916000  0.00113400  1.78309000  1
  Mo  Mo3  1  -0.04553090  1.90552000  1.82809000  1
  Mo  Mo4  1  3.63212000  7.39127000  0.06689840  1
  Mo  Mo5  1  5.46352000  1.77559000  0.04261230  1
  Mo  Mo6  1  5.44561000  -0.02663240  1.85736000  1
  Mo  Mo7  1  3.57910000  1.78899000  1.89340000  1
  Mo  Mo8  1  0.05104570  3.64374000  3.62692000  1
  Mo  Mo9  1  1.86441000  5.45736000  3.64409000  1
  Mo  Mo10  1  1.84536000  3.63809000  1.78912000  1
  Mo  Mo11  1  7.34148000  5.48435000  1.77346000  1
  Mo  Mo12  1  3.67408000  3.58584000  -0.01730490  1
  Mo  Mo13  1  5.47008000  5.39333000  3.62151000  1
  Mo  Mo14  1  5.51122000  3.61319000  1.76553000  1
  Mo  Mo15  1  3.63669000  5.45856000  1.86113000  1
