# generated using pymatgen
data_Mo
_symmetry_space_group_name_H-M   'P 1'
_cell_length_a   7.28235037
_cell_length_b   7.28235037
_cell_length_c   3.64117527
_cell_angle_alpha   90.00000000
_cell_angle_beta   90.00000000
_cell_angle_gamma   90.00000000
_symmetry_Int_Tables_number   1
_chemical_formula_structural   Mo
_chemical_formula_sum   Mo16
_cell_volume   193.10108955
_cell_formula_units_Z   16
loop_
 _symmetry_equiv_pos_site_id
 _symmetry_equiv_pos_as_xyz
  1  'x, y, z'
loop_
 _atom_site_type_symbol
 _atom_site_label
 _atom_site_symmetry_multiplicity
 _atom_site_fract_x
 _atom_site_fract_y
 _atom_site_fract_z
 _atom_site_occupancy
  Mo  Mo0  1  7.23984000  -0.01031520  3.64755000  1
  Mo  Mo1  1  1.78860000  1.84509000  -0.00455913  1
  Mo  Mo2  1  1.80348000  0.01888320  1.85194000  1
  Mo  Mo3  1  -0.06571940  1.82591000  1.76397000  1
  Mo  Mo4  1  3.56669000  7.37976000  0.00720828  1
  Mo  Mo5  1  5.44779000  1.77369000  -0.05773670  1
  Mo  Mo6  1  5.38492000  -0.02263450  1.83939000  1
  Mo  Mo7  1  3.67720000  1.80699000  1.77751000  1
  Mo  Mo8  1  -0.00644457  3.67789000  3.58024000  1
  Mo  Mo9  1  1.84341000  5.42076000  3.73702000  1
  Mo  Mo10  1  1.82146000  3.62389000  1.84111000  1
  Mo  Mo11  1  7.31793000  5.47169000  1.93477000  1
  Mo  Mo12  1  3.73013000  3.65718000  -0.07724200  1
  Mo  Mo13  1  5.49076000  5.46104000  3.68115000  1
  Mo  Mo14  1  5.50762000  3.57290000  1.74765000  1
  Mo  Mo15  1  3.67633000  5.43890000  1.84203000  1
