# generated using pymatgen
data_Mo
_symmetry_space_group_name_H-M   'P 1'
_cell_length_a   7.28235037
_cell_length_b   7.28235037
_cell_length_c   3.64117527
_cell_angle_alpha   90.00000000
_cell_angle_beta   90.00000000
_cell_angle_gamma   90.00000000
_symmetry_Int_Tables_number   1
_chemical_formula_structural   Mo
_chemical_formula_sum   Mo16
_cell_volume   193.10108955
_cell_formula_units_Z   16
loop_
 _symmetry_equiv_pos_site_id
 _symmetry_equiv_pos_as_xyz
  1  'x, y, z'
loop_
 _atom_site_type_symbol
 _atom_site_label
 _atom_site_symmetry_multiplicity
 _atom_site_fract_x
 _atom_site_fract_y
 _atom_site_fract_z
 _atom_site_occupancy
  Mo  Mo0  1  7.30997000  0.02240520  3.60298000  1
  Mo  Mo1  1  1.87095000  1.84878000  -0.00189676  1
  Mo  Mo2  1  1.86403000  -0.02072300  1.86179000  1
  Mo  Mo3  1  0.04849230  1.86792000  1.84015000  1
  Mo  Mo4  1  3.57139000  7.19573000  0.10838000  1
  Mo  Mo5  1  5.50264000  1.74907000  -0.01809460  1
  Mo  Mo6  1  5.50131000  0.01287840  1.82396000  1
  Mo  Mo7  1  3.66989000  1.77130000  1.84300000  1
  Mo  Mo8  1  -0.01447890  3.63613000  3.52540000  1
  Mo  Mo9  1  1.77404000  5.47755000  3.54193000  1
  Mo  Mo10  1  1.76983000  3.68543000  1.73013000  1
  Mo  Mo11  1  7.22222000  5.48357000  1.72740000  1
  Mo  Mo12  1  3.66561000  3.58781000  0.06997150  1
  Mo  Mo13  1  5.44110000  5.45070000  3.67526000  1
  Mo  Mo14  1  5.40724000  3.71415000  1.95531000  1
  Mo  Mo15  1  3.61977000  5.45895000  1.82632000  1
