# generated using pymatgen
data_Mo
_symmetry_space_group_name_H-M   'P 1'
_cell_length_a   7.28235037
_cell_length_b   7.28235037
_cell_length_c   3.64117527
_cell_angle_alpha   90.00000000
_cell_angle_beta   90.00000000
_cell_angle_gamma   90.00000000
_symmetry_Int_Tables_number   1
_chemical_formula_structural   Mo
_chemical_formula_sum   Mo16
_cell_volume   193.10108955
_cell_formula_units_Z   16
loop_
 _symmetry_equiv_pos_site_id
 _symmetry_equiv_pos_as_xyz
  1  'x, y, z'
loop_
 _atom_site_type_symbol
 _atom_site_label
 _atom_site_symmetry_multiplicity
 _atom_site_fract_x
 _atom_site_fract_y
 _atom_site_fract_z
 _atom_site_occupancy
  Mo  Mo0  1  7.34786000  0.01688620  3.65801000  1
  Mo  Mo1  1  1.84106000  1.85166000  -0.04774040  1
  Mo  Mo2  1  1.77369000  0.01276510  1.77363000  1
  Mo  Mo3  1  0.09318180  1.85223000  1.82967000  1
  Mo  Mo4  1  3.68148000  7.27250000  -0.01289260  1
  Mo  Mo5  1  5.52651000  1.84371000  0.08724320  1
  Mo  Mo6  1  5.44001000  -0.03491140  1.76175000  1
  Mo  Mo7  1  3.62348000  1.72991000  1.91255000  1
  Mo  Mo8  1  0.00530880  3.71750000  3.57932000  1
  Mo  Mo9  1  1.78210000  5.49990000  3.62211000  1
  Mo  Mo10  1  1.81614000  3.63290000  1.84633000  1
  Mo  Mo11  1  7.19635000  5.53916000  1.77466000  1
  Mo  Mo12  1  3.63028000  3.62102000  0.07999670  1
  Mo  Mo13  1  5.36076000  5.43385000  3.64543000  1
  Mo  Mo14  1  5.49252000  3.55107000  1.76919000  1
  Mo  Mo15  1  3.61326000  5.40150000  1.83276000  1
