# generated using pymatgen
data_Mo
_symmetry_space_group_name_H-M   'P 1'
_cell_length_a   7.28235037
_cell_length_b   7.28235037
_cell_length_c   3.64117527
_cell_angle_alpha   90.00000000
_cell_angle_beta   90.00000000
_cell_angle_gamma   90.00000000
_symmetry_Int_Tables_number   1
_chemical_formula_structural   Mo
_chemical_formula_sum   Mo16
_cell_volume   193.10108955
_cell_formula_units_Z   16
loop_
 _symmetry_equiv_pos_site_id
 _symmetry_equiv_pos_as_xyz
  1  'x, y, z'
loop_
 _atom_site_type_symbol
 _atom_site_label
 _atom_site_symmetry_multiplicity
 _atom_site_fract_x
 _atom_site_fract_y
 _atom_site_fract_z
 _atom_site_occupancy
  Mo  Mo0  1  7.29020000  0.04593170  3.64022000  1
  Mo  Mo1  1  1.73751000  1.78868000  -0.04267820  1
  Mo  Mo2  1  1.84898000  -0.05196370  1.78176000  1
  Mo  Mo3  1  -0.03720920  1.78066000  1.79323000  1
  Mo  Mo4  1  3.65646000  7.33300000  -0.04278280  1
  Mo  Mo5  1  5.42123000  1.84782000  -0.03572500  1
  Mo  Mo6  1  5.45889000  0.04928180  1.86528000  1
  Mo  Mo7  1  3.58302000  1.83425000  1.71623000  1
  Mo  Mo8  1  -0.05186490  3.71213000  3.61049000  1
  Mo  Mo9  1  1.85914000  5.34241000  3.69170000  1
  Mo  Mo10  1  1.82902000  3.61627000  1.92087000  1
  Mo  Mo11  1  7.30173000  5.42808000  1.93447000  1
  Mo  Mo12  1  3.69409000  3.56966000  0.01371260  1
  Mo  Mo13  1  5.50001000  5.54431000  3.69737000  1
  Mo  Mo14  1  5.44350000  3.60612000  1.77088000  1
  Mo  Mo15  1  3.68929000  5.49501000  1.79697000  1
