# generated using pymatgen
data_Mo
_symmetry_space_group_name_H-M   'P 1'
_cell_length_a   7.28235037
_cell_length_b   7.28235037
_cell_length_c   3.64117527
_cell_angle_alpha   90.00000000
_cell_angle_beta   90.00000000
_cell_angle_gamma   90.00000000
_symmetry_Int_Tables_number   1
_chemical_formula_structural   Mo
_chemical_formula_sum   Mo16
_cell_volume   193.10108955
_cell_formula_units_Z   16
loop_
 _symmetry_equiv_pos_site_id
 _symmetry_equiv_pos_as_xyz
  1  'x, y, z'
loop_
 _atom_site_type_symbol
 _atom_site_label
 _atom_site_symmetry_multiplicity
 _atom_site_fract_x
 _atom_site_fract_y
 _atom_site_fract_z
 _atom_site_occupancy
  Mo  Mo0  1  7.34305000  0.01479480  3.61272000  1
  Mo  Mo1  1  1.84709000  1.87328000  0.03558250  1
  Mo  Mo2  1  1.79156000  0.05405620  1.83488000  1
  Mo  Mo3  1  0.04793940  1.86615000  1.84804000  1
  Mo  Mo4  1  3.61067000  7.29253000  0.02020470  1
  Mo  Mo5  1  5.57247000  1.74877000  0.01962770  1
  Mo  Mo6  1  5.46777000  -0.06669860  1.82545000  1
  Mo  Mo7  1  3.71990000  1.80152000  1.83953000  1
  Mo  Mo8  1  -0.05970770  3.65441000  3.58746000  1
  Mo  Mo9  1  1.75964000  5.41232000  3.66043000  1
  Mo  Mo10  1  1.79328000  3.58608000  1.79880000  1
  Mo  Mo11  1  7.23153000  5.52424000  1.75877000  1
  Mo  Mo12  1  3.67497000  3.64714000  -0.04422340  1
  Mo  Mo13  1  5.38982000  5.51813000  3.64076000  1
  Mo  Mo14  1  5.41121000  3.58620000  1.80484000  1
  Mo  Mo15  1  3.62280000  5.42872000  1.86913000  1
