# generated using pymatgen
data_Mo
_symmetry_space_group_name_H-M   'P 1'
_cell_length_a   7.28235037
_cell_length_b   7.28235037
_cell_length_c   3.64117527
_cell_angle_alpha   90.00000000
_cell_angle_beta   90.00000000
_cell_angle_gamma   90.00000000
_symmetry_Int_Tables_number   1
_chemical_formula_structural   Mo
_chemical_formula_sum   Mo16
_cell_volume   193.10108955
_cell_formula_units_Z   16
loop_
 _symmetry_equiv_pos_site_id
 _symmetry_equiv_pos_as_xyz
  1  'x, y, z'
loop_
 _atom_site_type_symbol
 _atom_site_label
 _atom_site_symmetry_multiplicity
 _atom_site_fract_x
 _atom_site_fract_y
 _atom_site_fract_z
 _atom_site_occupancy
  Mo  Mo0  1  7.24269000  -0.03421480  3.62244000  1
  Mo  Mo1  1  1.71769000  1.82720000  -0.00953117  1
  Mo  Mo2  1  1.81721000  0.06406710  1.90517000  1
  Mo  Mo3  1  -0.06112510  1.79013000  1.74812000  1
  Mo  Mo4  1  3.62505000  7.28539000  0.03612900  1
  Mo  Mo5  1  5.44019000  1.87547000  -0.03455280  1
  Mo  Mo6  1  5.48470000  0.03228030  1.77771000  1
  Mo  Mo7  1  3.60527000  1.83235000  1.73292000  1
  Mo  Mo8  1  0.04550090  3.65257000  3.63708000  1
  Mo  Mo9  1  1.88211000  5.47280000  3.65731000  1
  Mo  Mo10  1  1.82701000  3.60227000  1.75661000  1
  Mo  Mo11  1  7.32731000  5.38118000  1.84548000  1
  Mo  Mo12  1  3.58908000  3.58497000  -0.00259524  1
  Mo  Mo13  1  5.52032000  5.47491000  3.70696000  1
  Mo  Mo14  1  5.47854000  3.60758000  1.89689000  1
  Mo  Mo15  1  3.68246000  5.49269000  1.83586000  1
