# generated using pymatgen
data_Mo
_symmetry_space_group_name_H-M   'P 1'
_cell_length_a   7.27808089
_cell_length_b   7.27808089
_cell_length_c   3.63904047
_cell_angle_alpha   90.00000000
_cell_angle_beta   90.00000000
_cell_angle_gamma   90.00000000
_symmetry_Int_Tables_number   1
_chemical_formula_structural   Mo
_chemical_formula_sum   Mo16
_cell_volume   192.76165285
_cell_formula_units_Z   16
loop_
 _symmetry_equiv_pos_site_id
 _symmetry_equiv_pos_as_xyz
  1  'x, y, z'
loop_
 _atom_site_type_symbol
 _atom_site_label
 _atom_site_symmetry_multiplicity
 _atom_site_fract_x
 _atom_site_fract_y
 _atom_site_fract_z
 _atom_site_occupancy
  Mo  Mo0  1  -0.00675076  7.28464000  0.01312820  1
  Mo  Mo1  1  1.82037000  1.81492000  0.00366037  1
  Mo  Mo2  1  1.81738000  7.26797000  1.81006000  1
  Mo  Mo3  1  7.28038000  1.82244000  1.83167000  1
  Mo  Mo4  1  3.63810000  7.28566000  3.63399000  1
  Mo  Mo5  1  5.46919000  1.82772000  0.01108430  1
  Mo  Mo6  1  5.45382000  0.00194262  1.82149000  1
  Mo  Mo7  1  3.64375000  1.81339000  1.82649000  1
  Mo  Mo8  1  7.27589000  3.64159000  3.63569000  1
  Mo  Mo9  1  1.80923000  5.45754000  3.63608000  1
  Mo  Mo10  1  1.82368000  3.64370000  1.82660000  1
  Mo  Mo11  1  7.27747000  5.44929000  1.82379000  1
  Mo  Mo12  1  3.64767000  3.63811000  -0.00906699  1
  Mo  Mo13  1  5.46584000  5.45788000  3.63314000  1
  Mo  Mo14  1  5.44912000  3.63766000  1.81134000  1
  Mo  Mo15  1  3.63694000  5.45762000  1.80284000  1
