# generated using pymatgen
data_Mo
_symmetry_space_group_name_H-M   'P 1'
_cell_length_a   7.28235037
_cell_length_b   7.28235037
_cell_length_c   3.64117527
_cell_angle_alpha   90.00000000
_cell_angle_beta   90.00000000
_cell_angle_gamma   90.00000000
_symmetry_Int_Tables_number   1
_chemical_formula_structural   Mo
_chemical_formula_sum   Mo16
_cell_volume   193.10108955
_cell_formula_units_Z   16
loop_
 _symmetry_equiv_pos_site_id
 _symmetry_equiv_pos_as_xyz
  1  'x, y, z'
loop_
 _atom_site_type_symbol
 _atom_site_label
 _atom_site_symmetry_multiplicity
 _atom_site_fract_x
 _atom_site_fract_y
 _atom_site_fract_z
 _atom_site_occupancy
  Mo  Mo0  1  7.25993000  0.06029110  3.60088000  1
  Mo  Mo1  1  1.89317000  1.81446000  -0.03140120  1
  Mo  Mo2  1  1.76228000  -0.00138511  1.84820000  1
  Mo  Mo3  1  0.03378310  1.80885000  1.86082000  1
  Mo  Mo4  1  3.63394000  7.27375000  0.06090590  1
  Mo  Mo5  1  5.41275000  1.79813000  -0.01137290  1
  Mo  Mo6  1  5.44956000  -0.06207090  1.77879000  1
  Mo  Mo7  1  3.64529000  1.82042000  1.76044000  1
  Mo  Mo8  1  0.02279360  3.64598000  3.62382000  1
  Mo  Mo9  1  1.75626000  5.51794000  3.71124000  1
  Mo  Mo10  1  1.85666000  3.72099000  1.82420000  1
  Mo  Mo11  1  7.28239000  5.42277000  1.82566000  1
  Mo  Mo12  1  3.57796000  3.70090000  -0.05120310  1
  Mo  Mo13  1  5.50944000  5.40924000  3.66764000  1
  Mo  Mo14  1  5.48879000  3.51545000  1.79205000  1
  Mo  Mo15  1  3.63902000  5.49593000  1.85134000  1
