# generated using pymatgen
data_Mo
_symmetry_space_group_name_H-M   'P 1'
_cell_length_a   7.28235037
_cell_length_b   7.28235037
_cell_length_c   3.64117527
_cell_angle_alpha   90.00000000
_cell_angle_beta   90.00000000
_cell_angle_gamma   90.00000000
_symmetry_Int_Tables_number   1
_chemical_formula_structural   Mo
_chemical_formula_sum   Mo16
_cell_volume   193.10108955
_cell_formula_units_Z   16
loop_
 _symmetry_equiv_pos_site_id
 _symmetry_equiv_pos_as_xyz
  1  'x, y, z'
loop_
 _atom_site_type_symbol
 _atom_site_label
 _atom_site_symmetry_multiplicity
 _atom_site_fract_x
 _atom_site_fract_y
 _atom_site_fract_z
 _atom_site_occupancy
  Mo  Mo0  1  7.33654000  0.01245820  3.64223000  1
  Mo  Mo1  1  1.72606000  1.74404000  -0.00959303  1
  Mo  Mo2  1  1.95320000  -0.00127560  1.76735000  1
  Mo  Mo3  1  -0.02374710  1.77218000  1.78271000  1
  Mo  Mo4  1  3.64473000  7.31043000  -0.04794490  1
  Mo  Mo5  1  5.49060000  1.85082000  0.00299319  1
  Mo  Mo6  1  5.51625000  -0.05309910  1.83928000  1
  Mo  Mo7  1  3.63466000  1.90368000  1.76300000  1
  Mo  Mo8  1  -0.00618778  3.64090000  3.71307000  1
  Mo  Mo9  1  1.86815000  5.43689000  3.71780000  1
  Mo  Mo10  1  1.77829000  3.58640000  1.86501000  1
  Mo  Mo11  1  7.26966000  5.51302000  1.86707000  1
  Mo  Mo12  1  3.60311000  3.59950000  -0.03109090  1
  Mo  Mo13  1  5.41388000  5.46228000  3.62193000  1
  Mo  Mo14  1  5.46896000  3.71771000  1.75606000  1
  Mo  Mo15  1  3.54983000  5.44572000  1.86212000  1
