# generated using pymatgen
data_Mo
_symmetry_space_group_name_H-M   'P 1'
_cell_length_a   7.28235037
_cell_length_b   7.28235037
_cell_length_c   3.64117527
_cell_angle_alpha   90.00000000
_cell_angle_beta   90.00000000
_cell_angle_gamma   90.00000000
_symmetry_Int_Tables_number   1
_chemical_formula_structural   Mo
_chemical_formula_sum   Mo16
_cell_volume   193.10108955
_cell_formula_units_Z   16
loop_
 _symmetry_equiv_pos_site_id
 _symmetry_equiv_pos_as_xyz
  1  'x, y, z'
loop_
 _atom_site_type_symbol
 _atom_site_label
 _atom_site_symmetry_multiplicity
 _atom_site_fract_x
 _atom_site_fract_y
 _atom_site_fract_z
 _atom_site_occupancy
  Mo  Mo0  1  7.39164000  0.04724960  3.58461000  1
  Mo  Mo1  1  1.84298000  1.86832000  -0.00404658  1
  Mo  Mo2  1  1.87382000  0.01494570  1.74254000  1
  Mo  Mo3  1  0.04791850  1.79222000  1.86224000  1
  Mo  Mo4  1  3.60703000  7.22941000  0.07508080  1
  Mo  Mo5  1  5.49694000  1.77171000  0.07157860  1
  Mo  Mo6  1  5.53987000  -0.00184536  1.89156000  1
  Mo  Mo7  1  3.69609000  1.79906000  1.84769000  1
  Mo  Mo8  1  -0.11451900  3.63389000  3.66511000  1
  Mo  Mo9  1  1.77337000  5.44509000  3.56248000  1
  Mo  Mo10  1  1.77294000  3.63827000  1.88469000  1
  Mo  Mo11  1  7.22633000  5.46228000  1.74085000  1
  Mo  Mo12  1  3.67702000  3.57750000  0.04140510  1
  Mo  Mo13  1  5.40688000  5.49313000  3.56066000  1
  Mo  Mo14  1  5.45213000  3.72044000  1.77706000  1
  Mo  Mo15  1  3.53356000  5.44997000  1.80850000  1
