# generated using pymatgen
data_Mo
_symmetry_space_group_name_H-M   'P 1'
_cell_length_a   7.28235037
_cell_length_b   7.28235037
_cell_length_c   3.64117527
_cell_angle_alpha   90.00000000
_cell_angle_beta   90.00000000
_cell_angle_gamma   90.00000000
_symmetry_Int_Tables_number   1
_chemical_formula_structural   Mo
_chemical_formula_sum   Mo16
_cell_volume   193.10108955
_cell_formula_units_Z   16
loop_
 _symmetry_equiv_pos_site_id
 _symmetry_equiv_pos_as_xyz
  1  'x, y, z'
loop_
 _atom_site_type_symbol
 _atom_site_label
 _atom_site_symmetry_multiplicity
 _atom_site_fract_x
 _atom_site_fract_y
 _atom_site_fract_z
 _atom_site_occupancy
  Mo  Mo0  1  7.32433000  0.03382780  3.69023000  1
  Mo  Mo1  1  1.80503000  1.81682000  -0.02893480  1
  Mo  Mo2  1  1.87670000  0.01658910  1.81216000  1
  Mo  Mo3  1  -0.06656250  1.80396000  1.86203000  1
  Mo  Mo4  1  3.67361000  7.30847000  -0.10397200  1
  Mo  Mo5  1  5.39387000  1.85913000  0.03718070  1
  Mo  Mo6  1  5.49643000  -0.03032850  1.80365000  1
  Mo  Mo7  1  3.65852000  1.81492000  1.84197000  1
  Mo  Mo8  1  -0.03837870  3.62327000  3.66212000  1
  Mo  Mo9  1  1.78282000  5.39912000  3.67413000  1
  Mo  Mo10  1  1.81479000  3.55448000  1.88293000  1
  Mo  Mo11  1  7.33093000  5.41479000  1.86263000  1
  Mo  Mo12  1  3.59177000  3.73523000  -0.03113120  1
  Mo  Mo13  1  5.46073000  5.46244000  3.57864000  1
  Mo  Mo14  1  5.44415000  3.61554000  1.74143000  1
  Mo  Mo15  1  3.67527000  5.51340000  1.82694000  1
