# generated using pymatgen
data_Mo
_symmetry_space_group_name_H-M   'P 1'
_cell_length_a   7.28235037
_cell_length_b   7.28235037
_cell_length_c   3.64117527
_cell_angle_alpha   90.00000000
_cell_angle_beta   90.00000000
_cell_angle_gamma   90.00000000
_symmetry_Int_Tables_number   1
_chemical_formula_structural   Mo
_chemical_formula_sum   Mo16
_cell_volume   193.10108955
_cell_formula_units_Z   16
loop_
 _symmetry_equiv_pos_site_id
 _symmetry_equiv_pos_as_xyz
  1  'x, y, z'
loop_
 _atom_site_type_symbol
 _atom_site_label
 _atom_site_symmetry_multiplicity
 _atom_site_fract_x
 _atom_site_fract_y
 _atom_site_fract_z
 _atom_site_occupancy
  Mo  Mo0  1  7.28895000  -0.04435310  3.61082000  1
  Mo  Mo1  1  1.84423000  1.88464000  -0.04438640  1
  Mo  Mo2  1  1.74404000  0.00084299  1.83451000  1
  Mo  Mo3  1  -0.00662666  1.81965000  1.80660000  1
  Mo  Mo4  1  3.62748000  7.27068000  0.10725200  1
  Mo  Mo5  1  5.45644000  1.77742000  -0.01860760  1
  Mo  Mo6  1  5.43936000  0.06579070  1.77180000  1
  Mo  Mo7  1  3.56495000  1.82005000  1.77442000  1
  Mo  Mo8  1  -0.07498900  3.55286000  3.62906000  1
  Mo  Mo9  1  1.86659000  5.49742000  3.65377000  1
  Mo  Mo10  1  1.85841000  3.67461000  1.79767000  1
  Mo  Mo11  1  7.26168000  5.40333000  1.83623000  1
  Mo  Mo12  1  3.65601000  3.68191000  0.02651360  1
  Mo  Mo13  1  5.55090000  5.47602000  3.68162000  1
  Mo  Mo14  1  5.45391000  3.60405000  1.84872000  1
  Mo  Mo15  1  3.69267000  5.45673000  1.79602000  1
