# generated using pymatgen
data_Mo
_symmetry_space_group_name_H-M   'P 1'
_cell_length_a   7.28235037
_cell_length_b   7.28235037
_cell_length_c   3.64117527
_cell_angle_alpha   90.00000000
_cell_angle_beta   90.00000000
_cell_angle_gamma   90.00000000
_symmetry_Int_Tables_number   1
_chemical_formula_structural   Mo
_chemical_formula_sum   Mo16
_cell_volume   193.10108955
_cell_formula_units_Z   16
loop_
 _symmetry_equiv_pos_site_id
 _symmetry_equiv_pos_as_xyz
  1  'x, y, z'
loop_
 _atom_site_type_symbol
 _atom_site_label
 _atom_site_symmetry_multiplicity
 _atom_site_fract_x
 _atom_site_fract_y
 _atom_site_fract_z
 _atom_site_occupancy
  Mo  Mo0  1  7.27269000  -0.03975280  3.56051000  1
  Mo  Mo1  1  1.82655000  1.79348000  0.05245000  1
  Mo  Mo2  1  1.95233000  -0.08399040  1.69771000  1
  Mo  Mo3  1  0.07314900  1.81535000  1.84353000  1
  Mo  Mo4  1  3.66440000  7.31812000  -0.00457730  1
  Mo  Mo5  1  5.50406000  1.86458000  0.14169800  1
  Mo  Mo6  1  5.47116000  -0.00165847  1.84052000  1
  Mo  Mo7  1  3.66844000  1.80865000  1.88325000  1
  Mo  Mo8  1  0.01203060  3.70844000  3.63342000  1
  Mo  Mo9  1  1.81245000  5.47057000  3.55589000  1
  Mo  Mo10  1  1.75064000  3.64644000  1.90716000  1
  Mo  Mo11  1  7.25279000  5.50026000  1.80170000  1
  Mo  Mo12  1  3.54766000  3.63289000  0.01170360  1
  Mo  Mo13  1  5.42206000  5.41919000  3.60322000  1
  Mo  Mo14  1  5.40640000  3.64143000  1.83897000  1
  Mo  Mo15  1  3.58721000  5.44765000  1.74484000  1
