# generated using pymatgen
data_Mo
_symmetry_space_group_name_H-M   'P 1'
_cell_length_a   7.28235037
_cell_length_b   7.28235037
_cell_length_c   3.64117527
_cell_angle_alpha   90.00000000
_cell_angle_beta   90.00000000
_cell_angle_gamma   90.00000000
_symmetry_Int_Tables_number   1
_chemical_formula_structural   Mo
_chemical_formula_sum   Mo16
_cell_volume   193.10108955
_cell_formula_units_Z   16
loop_
 _symmetry_equiv_pos_site_id
 _symmetry_equiv_pos_as_xyz
  1  'x, y, z'
loop_
 _atom_site_type_symbol
 _atom_site_label
 _atom_site_symmetry_multiplicity
 _atom_site_fract_x
 _atom_site_fract_y
 _atom_site_fract_z
 _atom_site_occupancy
  Mo  Mo0  1  7.20221000  0.03956090  3.63048000  1
  Mo  Mo1  1  1.84887000  1.77195000  -0.07418250  1
  Mo  Mo2  1  1.80470000  0.02163830  1.73713000  1
  Mo  Mo3  1  -0.05504070  1.80836000  1.75162000  1
  Mo  Mo4  1  3.58193000  7.23865000  0.04341830  1
  Mo  Mo5  1  5.47240000  1.82391000  0.10668300  1
  Mo  Mo6  1  5.44057000  -0.07478680  1.88061000  1
  Mo  Mo7  1  3.67588000  1.77658000  1.87971000  1
  Mo  Mo8  1  0.09123780  3.68790000  3.59297000  1
  Mo  Mo9  1  1.72946000  5.52551000  3.64954000  1
  Mo  Mo10  1  1.90198000  3.61298000  1.82570000  1
  Mo  Mo11  1  7.31875000  5.48666000  1.78704000  1
  Mo  Mo12  1  3.60313000  3.70520000  0.04268860  1
  Mo  Mo13  1  5.44944000  5.37300000  3.67813000  1
  Mo  Mo14  1  5.52356000  3.65453000  1.73552000  1
  Mo  Mo15  1  3.63492000  5.49000000  1.84495000  1
