# generated using pymatgen
data_Mo
_symmetry_space_group_name_H-M   'P 1'
_cell_length_a   7.27808089
_cell_length_b   7.27808089
_cell_length_c   3.63904047
_cell_angle_alpha   90.00000000
_cell_angle_beta   90.00000000
_cell_angle_gamma   90.00000000
_symmetry_Int_Tables_number   1
_chemical_formula_structural   Mo
_chemical_formula_sum   Mo16
_cell_volume   192.76165285
_cell_formula_units_Z   16
loop_
 _symmetry_equiv_pos_site_id
 _symmetry_equiv_pos_as_xyz
  1  'x, y, z'
loop_
 _atom_site_type_symbol
 _atom_site_label
 _atom_site_symmetry_multiplicity
 _atom_site_fract_x
 _atom_site_fract_y
 _atom_site_fract_z
 _atom_site_occupancy
  Mo  Mo0  1  0.00463443  7.27631000  0.00550548  1
  Mo  Mo1  1  1.81790000  1.82755000  0.01104760  1
  Mo  Mo2  1  1.81552000  7.27655000  1.82252000  1
  Mo  Mo3  1  7.28910000  1.81337000  1.82775000  1
  Mo  Mo4  1  3.63840000  7.27304000  3.64291000  1
  Mo  Mo5  1  5.46876000  1.82584000  0.00174104  1
  Mo  Mo6  1  5.44130000  -0.00315925  1.81931000  1
  Mo  Mo7  1  3.64525000  1.81380000  1.81914000  1
  Mo  Mo8  1  7.27461000  3.63385000  3.64901000  1
  Mo  Mo9  1  1.81887000  5.45988000  3.62540000  1
  Mo  Mo10  1  1.82664000  3.65190000  1.81623000  1
  Mo  Mo11  1  7.27984000  5.45431000  1.82293000  1
  Mo  Mo12  1  3.62850000  3.63544000  -0.01100610  1
  Mo  Mo13  1  5.45203000  5.45969000  3.62861000  1
  Mo  Mo14  1  5.46309000  3.65692000  1.82276000  1
  Mo  Mo15  1  3.63762000  5.44678000  1.80813000  1
