# generated using pymatgen
data_Mo
_symmetry_space_group_name_H-M   'P 1'
_cell_length_a   7.28235037
_cell_length_b   7.28235037
_cell_length_c   3.64117527
_cell_angle_alpha   90.00000000
_cell_angle_beta   90.00000000
_cell_angle_gamma   90.00000000
_symmetry_Int_Tables_number   1
_chemical_formula_structural   Mo
_chemical_formula_sum   Mo16
_cell_volume   193.10108955
_cell_formula_units_Z   16
loop_
 _symmetry_equiv_pos_site_id
 _symmetry_equiv_pos_as_xyz
  1  'x, y, z'
loop_
 _atom_site_type_symbol
 _atom_site_label
 _atom_site_symmetry_multiplicity
 _atom_site_fract_x
 _atom_site_fract_y
 _atom_site_fract_z
 _atom_site_occupancy
  Mo  Mo0  1  7.26233000  -0.02134030  3.72765000  1
  Mo  Mo1  1  1.87710000  1.82558000  -0.02237150  1
  Mo  Mo2  1  1.72177000  0.08842200  1.89937000  1
  Mo  Mo3  1  -0.10847000  1.82969000  1.73455000  1
  Mo  Mo4  1  3.61443000  7.26263000  -0.08009570  1
  Mo  Mo5  1  5.46590000  1.82214000  -0.13138100  1
  Mo  Mo6  1  5.38727000  -0.00110823  1.77658000  1
  Mo  Mo7  1  3.63093000  1.76954000  1.82344000  1
  Mo  Mo8  1  0.02372730  3.62487000  3.64005000  1
  Mo  Mo9  1  1.79099000  5.46607000  3.73158000  1
  Mo  Mo10  1  1.88857000  3.64647000  1.77486000  1
  Mo  Mo11  1  7.36102000  5.43584000  1.90601000  1
  Mo  Mo12  1  3.66432000  3.69501000  -0.02583360  1
  Mo  Mo13  1  5.49833000  5.40044000  3.69585000  1
  Mo  Mo14  1  5.47300000  3.59888000  1.82413000  1
  Mo  Mo15  1  3.67277000  5.49853000  1.83763000  1
