# generated using pymatgen
data_Mo
_symmetry_space_group_name_H-M   'P 1'
_cell_length_a   7.28235037
_cell_length_b   7.28235037
_cell_length_c   3.64117527
_cell_angle_alpha   90.00000000
_cell_angle_beta   90.00000000
_cell_angle_gamma   90.00000000
_symmetry_Int_Tables_number   1
_chemical_formula_structural   Mo
_chemical_formula_sum   Mo16
_cell_volume   193.10108955
_cell_formula_units_Z   16
loop_
 _symmetry_equiv_pos_site_id
 _symmetry_equiv_pos_as_xyz
  1  'x, y, z'
loop_
 _atom_site_type_symbol
 _atom_site_label
 _atom_site_symmetry_multiplicity
 _atom_site_fract_x
 _atom_site_fract_y
 _atom_site_fract_z
 _atom_site_occupancy
  Mo  Mo0  1  7.28618000  -0.04539720  3.71829000  1
  Mo  Mo1  1  1.79365000  1.86993000  -0.04158060  1
  Mo  Mo2  1  1.70406000  -0.02134770  1.81393000  1
  Mo  Mo3  1  -0.03962480  1.82943000  1.79122000  1
  Mo  Mo4  1  3.57727000  7.28265000  -0.07700860  1
  Mo  Mo5  1  5.38843000  1.82353000  -0.13059400  1
  Mo  Mo6  1  5.39421000  0.05384060  1.79003000  1
  Mo  Mo7  1  3.57572000  1.81262000  1.81616000  1
  Mo  Mo8  1  -0.00097671  3.59999000  3.62716000  1
  Mo  Mo9  1  1.90028000  5.43870000  3.69399000  1
  Mo  Mo10  1  1.83774000  3.64910000  1.84303000  1
  Mo  Mo11  1  7.36683000  5.41104000  1.89735000  1
  Mo  Mo12  1  3.65187000  3.67449000  0.03904970  1
  Mo  Mo13  1  5.51028000  5.49727000  3.71270000  1
  Mo  Mo14  1  5.48281000  3.61570000  1.80093000  1
  Mo  Mo15  1  3.79528000  5.45011000  1.81734000  1
