# generated using pymatgen
data_Mo
_symmetry_space_group_name_H-M   'P 1'
_cell_length_a   7.28235037
_cell_length_b   7.28235037
_cell_length_c   3.64117527
_cell_angle_alpha   90.00000000
_cell_angle_beta   90.00000000
_cell_angle_gamma   90.00000000
_symmetry_Int_Tables_number   1
_chemical_formula_structural   Mo
_chemical_formula_sum   Mo16
_cell_volume   193.10108955
_cell_formula_units_Z   16
loop_
 _symmetry_equiv_pos_site_id
 _symmetry_equiv_pos_as_xyz
  1  'x, y, z'
loop_
 _atom_site_type_symbol
 _atom_site_label
 _atom_site_symmetry_multiplicity
 _atom_site_fract_x
 _atom_site_fract_y
 _atom_site_fract_z
 _atom_site_occupancy
  Mo  Mo0  1  7.27092000  0.02952220  3.63000000  1
  Mo  Mo1  1  1.89927000  1.84569000  0.01950810  1
  Mo  Mo2  1  1.85243000  -0.00237978  1.80097000  1
  Mo  Mo3  1  0.05684890  1.85618000  1.80225000  1
  Mo  Mo4  1  3.69989000  7.22069000  0.04383440  1
  Mo  Mo5  1  5.44457000  1.76913000  0.03442290  1
  Mo  Mo6  1  5.49895000  0.05219810  1.91117000  1
  Mo  Mo7  1  3.68486000  1.75339000  1.83213000  1
  Mo  Mo8  1  0.04248500  3.59127000  3.67096000  1
  Mo  Mo9  1  1.68755000  5.49942000  3.62388000  1
  Mo  Mo10  1  1.78016000  3.71227000  1.84787000  1
  Mo  Mo11  1  7.21228000  5.48907000  1.76776000  1
  Mo  Mo12  1  3.63842000  3.63658000  -0.03502110  1
  Mo  Mo13  1  5.47482000  5.41452000  3.55616000  1
  Mo  Mo14  1  5.39798000  3.61924000  1.76612000  1
  Mo  Mo15  1  3.58256000  5.45486000  1.83999000  1
