# generated using pymatgen
data_Mo
_symmetry_space_group_name_H-M   'P 1'
_cell_length_a   7.28235037
_cell_length_b   7.28235037
_cell_length_c   3.64117527
_cell_angle_alpha   90.00000000
_cell_angle_beta   90.00000000
_cell_angle_gamma   90.00000000
_symmetry_Int_Tables_number   1
_chemical_formula_structural   Mo
_chemical_formula_sum   Mo16
_cell_volume   193.10108955
_cell_formula_units_Z   16
loop_
 _symmetry_equiv_pos_site_id
 _symmetry_equiv_pos_as_xyz
  1  'x, y, z'
loop_
 _atom_site_type_symbol
 _atom_site_label
 _atom_site_symmetry_multiplicity
 _atom_site_fract_x
 _atom_site_fract_y
 _atom_site_fract_z
 _atom_site_occupancy
  Mo  Mo0  1  7.25354000  0.06517680  3.63769000  1
  Mo  Mo1  1  1.84973000  1.82876000  0.00999010  1
  Mo  Mo2  1  1.81058000  0.04151570  1.79927000  1
  Mo  Mo3  1  0.01825110  1.75379000  1.75569000  1
  Mo  Mo4  1  3.59356000  7.22791000  0.02503730  1
  Mo  Mo5  1  5.39059000  1.85478000  0.07682360  1
  Mo  Mo6  1  5.37570000  -0.03332690  1.98571000  1
  Mo  Mo7  1  3.72156000  1.80223000  1.92501000  1
  Mo  Mo8  1  0.03081300  3.63658000  3.53718000  1
  Mo  Mo9  1  1.79368000  5.44541000  3.60125000  1
  Mo  Mo10  1  1.84546000  3.68756000  1.81418000  1
  Mo  Mo11  1  7.23423000  5.52695000  1.72658000  1
  Mo  Mo12  1  3.69664000  3.64808000  -0.01653180  1
  Mo  Mo13  1  5.45632000  5.46580000  3.58363000  1
  Mo  Mo14  1  5.50632000  3.59021000  1.78668000  1
  Mo  Mo15  1  3.64703000  5.40021000  1.86381000  1
