# generated using pymatgen
data_Mo
_symmetry_space_group_name_H-M   'P 1'
_cell_length_a   7.28235037
_cell_length_b   7.28235037
_cell_length_c   3.64117527
_cell_angle_alpha   90.00000000
_cell_angle_beta   90.00000000
_cell_angle_gamma   90.00000000
_symmetry_Int_Tables_number   1
_chemical_formula_structural   Mo
_chemical_formula_sum   Mo16
_cell_volume   193.10108955
_cell_formula_units_Z   16
loop_
 _symmetry_equiv_pos_site_id
 _symmetry_equiv_pos_as_xyz
  1  'x, y, z'
loop_
 _atom_site_type_symbol
 _atom_site_label
 _atom_site_symmetry_multiplicity
 _atom_site_fract_x
 _atom_site_fract_y
 _atom_site_fract_z
 _atom_site_occupancy
  Mo  Mo0  1  7.34698000  -0.04991280  3.64518000  1
  Mo  Mo1  1  1.83781000  1.80278000  -0.06707990  1
  Mo  Mo2  1  1.82528000  -0.03410020  1.78104000  1
  Mo  Mo3  1  0.01421750  1.87508000  1.82669000  1
  Mo  Mo4  1  3.61781000  7.29698000  -0.00207905  1
  Mo  Mo5  1  5.50579000  1.80452000  -0.02010380  1
  Mo  Mo6  1  5.50113000  0.11058200  1.81067000  1
  Mo  Mo7  1  3.62185000  1.75453000  1.79560000  1
  Mo  Mo8  1  -0.08600740  3.62014000  3.74952000  1
  Mo  Mo9  1  1.87147000  5.43140000  3.71025000  1
  Mo  Mo10  1  1.77778000  3.57810000  1.81068000  1
  Mo  Mo11  1  7.23652000  5.50333000  1.81092000  1
  Mo  Mo12  1  3.60408000  3.61860000  -0.04331830  1
  Mo  Mo13  1  5.41987000  5.52720000  3.62205000  1
  Mo  Mo14  1  5.43449000  3.69206000  1.81137000  1
  Mo  Mo15  1  3.69492000  5.41036000  1.87061000  1
