# generated using pymatgen
data_Mo
_symmetry_space_group_name_H-M   'P 1'
_cell_length_a   7.28235037
_cell_length_b   7.28235037
_cell_length_c   3.64117527
_cell_angle_alpha   90.00000000
_cell_angle_beta   90.00000000
_cell_angle_gamma   90.00000000
_symmetry_Int_Tables_number   1
_chemical_formula_structural   Mo
_chemical_formula_sum   Mo16
_cell_volume   193.10108955
_cell_formula_units_Z   16
loop_
 _symmetry_equiv_pos_site_id
 _symmetry_equiv_pos_as_xyz
  1  'x, y, z'
loop_
 _atom_site_type_symbol
 _atom_site_label
 _atom_site_symmetry_multiplicity
 _atom_site_fract_x
 _atom_site_fract_y
 _atom_site_fract_z
 _atom_site_occupancy
  Mo  Mo0  1  7.29829000  0.00133844  3.60272000  1
  Mo  Mo1  1  1.81235000  1.80326000  0.03769690  1
  Mo  Mo2  1  1.72045000  0.03758440  1.84639000  1
  Mo  Mo3  1  0.03057790  1.83184000  1.78833000  1
  Mo  Mo4  1  3.61915000  7.32043000  -0.07864850  1
  Mo  Mo5  1  5.48203000  1.82500000  -0.04028200  1
  Mo  Mo6  1  5.38562000  -0.00185314  1.85145000  1
  Mo  Mo7  1  3.58574000  1.82043000  1.77856000  1
  Mo  Mo8  1  0.00909542  3.66184000  3.75722000  1
  Mo  Mo9  1  1.87327000  5.46287000  3.69238000  1
  Mo  Mo10  1  1.83736000  3.65201000  1.89765000  1
  Mo  Mo11  1  7.26368000  5.43331000  1.87366000  1
  Mo  Mo12  1  3.70204000  3.59863000  -0.11836500  1
  Mo  Mo13  1  5.44471000  5.46585000  3.61033000  1
  Mo  Mo14  1  5.48917000  3.59750000  1.78886000  1
  Mo  Mo15  1  3.67048000  5.43161000  1.82403000  1
