# generated using pymatgen
data_Mo
_symmetry_space_group_name_H-M   'P 1'
_cell_length_a   7.28235037
_cell_length_b   7.28235037
_cell_length_c   3.64117527
_cell_angle_alpha   90.00000000
_cell_angle_beta   90.00000000
_cell_angle_gamma   90.00000000
_symmetry_Int_Tables_number   1
_chemical_formula_structural   Mo
_chemical_formula_sum   Mo16
_cell_volume   193.10108955
_cell_formula_units_Z   16
loop_
 _symmetry_equiv_pos_site_id
 _symmetry_equiv_pos_as_xyz
  1  'x, y, z'
loop_
 _atom_site_type_symbol
 _atom_site_label
 _atom_site_symmetry_multiplicity
 _atom_site_fract_x
 _atom_site_fract_y
 _atom_site_fract_z
 _atom_site_occupancy
  Mo  Mo0  1  7.24032000  0.01650770  3.63909000  1
  Mo  Mo1  1  1.80394000  1.86165000  -0.07926030  1
  Mo  Mo2  1  1.82062000  0.01181260  1.72483000  1
  Mo  Mo3  1  0.05595020  1.84411000  1.84089000  1
  Mo  Mo4  1  3.58743000  7.30171000  0.02744760  1
  Mo  Mo5  1  5.49656000  1.81374000  0.03192810  1
  Mo  Mo6  1  5.48805000  0.02859250  1.83117000  1
  Mo  Mo7  1  3.64862000  1.79441000  1.84619000  1
  Mo  Mo8  1  0.01128160  3.68577000  3.61718000  1
  Mo  Mo9  1  1.79070000  5.46770000  3.67499000  1
  Mo  Mo10  1  1.88627000  3.64570000  1.88693000  1
  Mo  Mo11  1  7.21571000  5.51319000  1.84964000  1
  Mo  Mo12  1  3.67769000  3.56941000  0.06430560  1
  Mo  Mo13  1  5.39223000  5.39235000  3.62014000  1
  Mo  Mo14  1  5.46699000  3.58942000  1.75487000  1
  Mo  Mo15  1  3.64164000  5.40557000  1.78167000  1
