# generated using pymatgen
data_Mo
_symmetry_space_group_name_H-M   'P 1'
_cell_length_a   7.28235037
_cell_length_b   7.28235037
_cell_length_c   3.64117527
_cell_angle_alpha   90.00000000
_cell_angle_beta   90.00000000
_cell_angle_gamma   90.00000000
_symmetry_Int_Tables_number   1
_chemical_formula_structural   Mo
_chemical_formula_sum   Mo16
_cell_volume   193.10108955
_cell_formula_units_Z   16
loop_
 _symmetry_equiv_pos_site_id
 _symmetry_equiv_pos_as_xyz
  1  'x, y, z'
loop_
 _atom_site_type_symbol
 _atom_site_label
 _atom_site_symmetry_multiplicity
 _atom_site_fract_x
 _atom_site_fract_y
 _atom_site_fract_z
 _atom_site_occupancy
  Mo  Mo0  1  7.33336000  -0.06590110  3.63015000  1
  Mo  Mo1  1  1.75702000  1.81952000  -0.06081190  1
  Mo  Mo2  1  1.86081000  -0.07459510  1.75471000  1
  Mo  Mo3  1  0.00440075  1.75691000  1.85307000  1
  Mo  Mo4  1  3.62581000  7.29315000  0.05317420  1
  Mo  Mo5  1  5.43003000  1.77621000  0.00599716  1
  Mo  Mo6  1  5.52717000  0.04844410  1.88606000  1
  Mo  Mo7  1  3.63308000  1.85392000  1.84650000  1
  Mo  Mo8  1  -0.01026190  3.61460000  3.59537000  1
  Mo  Mo9  1  1.80008000  5.43798000  3.66080000  1
  Mo  Mo10  1  1.76192000  3.66222000  1.90934000  1
  Mo  Mo11  1  7.31621000  5.45861000  1.85860000  1
  Mo  Mo12  1  3.64332000  3.64888000  0.01883710  1
  Mo  Mo13  1  5.46877000  5.47804000  3.56598000  1
  Mo  Mo14  1  5.37231000  3.72260000  1.78400000  1
  Mo  Mo15  1  3.69997000  5.51107000  1.75021000  1
