# generated using pymatgen
data_Mo
_symmetry_space_group_name_H-M   'P 1'
_cell_length_a   7.28235037
_cell_length_b   7.28235037
_cell_length_c   3.64117527
_cell_angle_alpha   90.00000000
_cell_angle_beta   90.00000000
_cell_angle_gamma   90.00000000
_symmetry_Int_Tables_number   1
_chemical_formula_structural   Mo
_chemical_formula_sum   Mo16
_cell_volume   193.10108955
_cell_formula_units_Z   16
loop_
 _symmetry_equiv_pos_site_id
 _symmetry_equiv_pos_as_xyz
  1  'x, y, z'
loop_
 _atom_site_type_symbol
 _atom_site_label
 _atom_site_symmetry_multiplicity
 _atom_site_fract_x
 _atom_site_fract_y
 _atom_site_fract_z
 _atom_site_occupancy
  Mo  Mo0  1  7.26588000  0.04001360  3.60622000  1
  Mo  Mo1  1  1.84680000  1.78610000  0.06072380  1
  Mo  Mo2  1  1.87676000  0.00071631  1.88120000  1
  Mo  Mo3  1  0.11281200  1.86034000  1.79089000  1
  Mo  Mo4  1  3.60533000  7.25224000  0.01111500  1
  Mo  Mo5  1  5.52351000  1.78771000  0.00143433  1
  Mo  Mo6  1  5.50653000  0.02849760  1.85515000  1
  Mo  Mo7  1  3.67330000  1.83511000  1.85177000  1
  Mo  Mo8  1  0.00246708  3.66054000  3.56239000  1
  Mo  Mo9  1  1.76583000  5.49978000  3.55451000  1
  Mo  Mo10  1  1.77673000  3.68136000  1.70244000  1
  Mo  Mo11  1  7.20958000  5.50199000  1.73287000  1
  Mo  Mo12  1  3.60940000  3.50048000  0.08068180  1
  Mo  Mo13  1  5.42473000  5.43155000  3.62071000  1
  Mo  Mo14  1  5.38860000  3.64542000  1.96193000  1
  Mo  Mo15  1  3.63576000  5.42980000  1.83796000  1
