# generated using pymatgen
data_Mo
_symmetry_space_group_name_H-M   'P 1'
_cell_length_a   7.28235037
_cell_length_b   7.28235037
_cell_length_c   3.64117527
_cell_angle_alpha   90.00000000
_cell_angle_beta   90.00000000
_cell_angle_gamma   90.00000000
_symmetry_Int_Tables_number   1
_chemical_formula_structural   Mo
_chemical_formula_sum   Mo16
_cell_volume   193.10108955
_cell_formula_units_Z   16
loop_
 _symmetry_equiv_pos_site_id
 _symmetry_equiv_pos_as_xyz
  1  'x, y, z'
loop_
 _atom_site_type_symbol
 _atom_site_label
 _atom_site_symmetry_multiplicity
 _atom_site_fract_x
 _atom_site_fract_y
 _atom_site_fract_z
 _atom_site_occupancy
  Mo  Mo0  1  7.29591000  0.10706600  3.65641000  1
  Mo  Mo1  1  1.93674000  1.77950000  0.02898100  1
  Mo  Mo2  1  1.80274000  -0.01172930  1.79193000  1
  Mo  Mo3  1  0.05259550  1.86323000  1.85894000  1
  Mo  Mo4  1  3.68807000  7.20952000  0.00522570  1
  Mo  Mo5  1  5.53347000  1.84326000  0.02675420  1
  Mo  Mo6  1  5.50664000  -0.00598073  1.80906000  1
  Mo  Mo7  1  3.68400000  1.76883000  1.93070000  1
  Mo  Mo8  1  -0.10233300  3.64730000  3.54861000  1
  Mo  Mo9  1  1.75690000  5.47442000  3.58384000  1
  Mo  Mo10  1  1.80892000  3.61676000  1.81149000  1
  Mo  Mo11  1  7.17799000  5.46907000  1.78633000  1
  Mo  Mo12  1  3.55528000  3.64416000  0.05696190  1
  Mo  Mo13  1  5.42224000  5.50504000  3.67038000  1
  Mo  Mo14  1  5.45007000  3.57704000  1.79941000  1
  Mo  Mo15  1  3.65477000  5.45415000  1.74697000  1
