# generated using pymatgen
data_Mo
_symmetry_space_group_name_H-M   'P 1'
_cell_length_a   7.27808089
_cell_length_b   7.27808089
_cell_length_c   3.63904047
_cell_angle_alpha   90.00000000
_cell_angle_beta   90.00000000
_cell_angle_gamma   90.00000000
_symmetry_Int_Tables_number   1
_chemical_formula_structural   Mo
_chemical_formula_sum   Mo16
_cell_volume   192.76165285
_cell_formula_units_Z   16
loop_
 _symmetry_equiv_pos_site_id
 _symmetry_equiv_pos_as_xyz
  1  'x, y, z'
loop_
 _atom_site_type_symbol
 _atom_site_label
 _atom_site_symmetry_multiplicity
 _atom_site_fract_x
 _atom_site_fract_y
 _atom_site_fract_z
 _atom_site_occupancy
  Mo  Mo0  1  0.00090708  7.27410000  -0.01043120  1
  Mo  Mo1  1  1.82159000  1.82014000  -0.00609574  1
  Mo  Mo2  1  1.83528000  7.26851000  1.82523000  1
  Mo  Mo3  1  7.26636000  1.82624000  1.80634000  1
  Mo  Mo4  1  3.63093000  7.28796000  3.62755000  1
  Mo  Mo5  1  5.45171000  1.81536000  0.00187921  1
  Mo  Mo6  1  5.46885000  -0.01741300  1.82204000  1
  Mo  Mo7  1  3.63074000  1.83143000  1.81584000  1
  Mo  Mo8  1  7.29036000  3.64289000  3.63528000  1
  Mo  Mo9  1  1.81975000  5.45118000  3.64525000  1
  Mo  Mo10  1  1.80719000  3.63652000  1.81691000  1
  Mo  Mo11  1  7.27841000  5.46982000  1.81851000  1
  Mo  Mo12  1  3.64540000  3.64152000  0.01465470  1
  Mo  Mo13  1  5.45948000  5.45232000  3.64508000  1
  Mo  Mo14  1  5.45389000  3.64151000  1.81435000  1
  Mo  Mo15  1  3.64124000  5.45999000  1.83960000  1
