# generated using pymatgen
data_Mo
_symmetry_space_group_name_H-M   'P 1'
_cell_length_a   7.28235037
_cell_length_b   7.28235037
_cell_length_c   3.64117527
_cell_angle_alpha   90.00000000
_cell_angle_beta   90.00000000
_cell_angle_gamma   90.00000000
_symmetry_Int_Tables_number   1
_chemical_formula_structural   Mo
_chemical_formula_sum   Mo16
_cell_volume   193.10108955
_cell_formula_units_Z   16
loop_
 _symmetry_equiv_pos_site_id
 _symmetry_equiv_pos_as_xyz
  1  'x, y, z'
loop_
 _atom_site_type_symbol
 _atom_site_label
 _atom_site_symmetry_multiplicity
 _atom_site_fract_x
 _atom_site_fract_y
 _atom_site_fract_z
 _atom_site_occupancy
  Mo  Mo0  1  7.24066000  0.01665010  3.62549000  1
  Mo  Mo1  1  1.76136000  1.81013000  -0.01253630  1
  Mo  Mo2  1  1.87123000  -0.08060830  1.77070000  1
  Mo  Mo3  1  -0.06350840  1.85785000  1.78061000  1
  Mo  Mo4  1  3.64675000  7.29467000  -0.02745090  1
  Mo  Mo5  1  5.37432000  1.83238000  0.01138280  1
  Mo  Mo6  1  5.50381000  0.08599800  1.86953000  1
  Mo  Mo7  1  3.56197000  1.82274000  1.73531000  1
  Mo  Mo8  1  0.00505082  3.63763000  3.66964000  1
  Mo  Mo9  1  1.83771000  5.37333000  3.67884000  1
  Mo  Mo10  1  1.87122000  3.63420000  1.88695000  1
  Mo  Mo11  1  7.27189000  5.44557000  1.86621000  1
  Mo  Mo12  1  3.71605000  3.60089000  -0.01071700  1
  Mo  Mo13  1  5.53445000  5.49295000  3.62498000  1
  Mo  Mo14  1  5.44632000  3.63220000  1.79429000  1
  Mo  Mo15  1  3.64474000  5.48507000  1.84878000  1
