# generated using pymatgen
data_Mo
_symmetry_space_group_name_H-M   'P 1'
_cell_length_a   7.28235037
_cell_length_b   7.28235037
_cell_length_c   3.64117527
_cell_angle_alpha   90.00000000
_cell_angle_beta   90.00000000
_cell_angle_gamma   90.00000000
_symmetry_Int_Tables_number   1
_chemical_formula_structural   Mo
_chemical_formula_sum   Mo16
_cell_volume   193.10108955
_cell_formula_units_Z   16
loop_
 _symmetry_equiv_pos_site_id
 _symmetry_equiv_pos_as_xyz
  1  'x, y, z'
loop_
 _atom_site_type_symbol
 _atom_site_label
 _atom_site_symmetry_multiplicity
 _atom_site_fract_x
 _atom_site_fract_y
 _atom_site_fract_z
 _atom_site_occupancy
  Mo  Mo0  1  7.30686000  0.02521050  3.61560000  1
  Mo  Mo1  1  1.87106000  1.85969000  0.01156770  1
  Mo  Mo2  1  1.77734000  0.00567805  1.83730000  1
  Mo  Mo3  1  0.05806800  1.87542000  1.74660000  1
  Mo  Mo4  1  3.67429000  7.26638000  -0.04210610  1
  Mo  Mo5  1  5.53182000  1.78435000  0.08328240  1
  Mo  Mo6  1  5.41789000  0.01291490  1.89077000  1
  Mo  Mo7  1  3.69163000  1.81794000  1.89210000  1
  Mo  Mo8  1  -0.01213320  3.69214000  3.55896000  1
  Mo  Mo9  1  1.81999000  5.45964000  3.56207000  1
  Mo  Mo10  1  1.78638000  3.69975000  1.73371000  1
  Mo  Mo11  1  7.21631000  5.48436000  1.70277000  1
  Mo  Mo12  1  3.65328000  3.52888000  0.06195710  1
  Mo  Mo13  1  5.38594000  5.47469000  3.65457000  1
  Mo  Mo14  1  5.42852000  3.56685000  1.91644000  1
  Mo  Mo15  1  3.61674000  5.38776000  1.88643000  1
