# generated using pymatgen
data_Mo
_symmetry_space_group_name_H-M   'P 1'
_cell_length_a   7.28235037
_cell_length_b   7.28235037
_cell_length_c   3.64117527
_cell_angle_alpha   90.00000000
_cell_angle_beta   90.00000000
_cell_angle_gamma   90.00000000
_symmetry_Int_Tables_number   1
_chemical_formula_structural   Mo
_chemical_formula_sum   Mo16
_cell_volume   193.10108955
_cell_formula_units_Z   16
loop_
 _symmetry_equiv_pos_site_id
 _symmetry_equiv_pos_as_xyz
  1  'x, y, z'
loop_
 _atom_site_type_symbol
 _atom_site_label
 _atom_site_symmetry_multiplicity
 _atom_site_fract_x
 _atom_site_fract_y
 _atom_site_fract_z
 _atom_site_occupancy
  Mo  Mo0  1  7.31106000  -0.05348770  3.64747000  1
  Mo  Mo1  1  1.82559000  1.83523000  -0.00869725  1
  Mo  Mo2  1  1.74996000  0.02981320  1.75904000  1
  Mo  Mo3  1  -0.09384590  1.81567000  1.86603000  1
  Mo  Mo4  1  3.56902000  7.26625000  -0.03315530  1
  Mo  Mo5  1  5.45987000  1.81039000  0.01147080  1
  Mo  Mo6  1  5.41700000  -0.04530010  1.85604000  1
  Mo  Mo7  1  3.55705000  1.82313000  1.78224000  1
  Mo  Mo8  1  0.01686570  3.62608000  3.71599000  1
  Mo  Mo9  1  1.86398000  5.37874000  3.68745000  1
  Mo  Mo10  1  1.88957000  3.58614000  1.83194000  1
  Mo  Mo11  1  7.38327000  5.44848000  1.77641000  1
  Mo  Mo12  1  3.62504000  3.75509000  -0.06208050  1
  Mo  Mo13  1  5.52234000  5.49395000  3.64714000  1
  Mo  Mo14  1  5.44566000  3.66345000  1.78742000  1
  Mo  Mo15  1  3.68156000  5.50803000  1.84728000  1
