# generated using pymatgen
data_Mo
_symmetry_space_group_name_H-M   'P 1'
_cell_length_a   7.28235037
_cell_length_b   7.28235037
_cell_length_c   3.64117527
_cell_angle_alpha   90.00000000
_cell_angle_beta   90.00000000
_cell_angle_gamma   90.00000000
_symmetry_Int_Tables_number   1
_chemical_formula_structural   Mo
_chemical_formula_sum   Mo16
_cell_volume   193.10108955
_cell_formula_units_Z   16
loop_
 _symmetry_equiv_pos_site_id
 _symmetry_equiv_pos_as_xyz
  1  'x, y, z'
loop_
 _atom_site_type_symbol
 _atom_site_label
 _atom_site_symmetry_multiplicity
 _atom_site_fract_x
 _atom_site_fract_y
 _atom_site_fract_z
 _atom_site_occupancy
  Mo  Mo0  1  7.28664000  -0.05931640  3.66897000  1
  Mo  Mo1  1  1.76060000  1.83942000  -0.09587800  1
  Mo  Mo2  1  1.78989000  0.01044700  1.80264000  1
  Mo  Mo3  1  -0.09188330  1.79458000  1.81226000  1
  Mo  Mo4  1  3.62194000  7.27304000  0.02742440  1
  Mo  Mo5  1  5.40524000  1.83072000  -0.08859030  1
  Mo  Mo6  1  5.39631000  0.00760712  1.89622000  1
  Mo  Mo7  1  3.59549000  1.87392000  1.72876000  1
  Mo  Mo8  1  -0.01999420  3.61567000  3.71990000  1
  Mo  Mo9  1  1.89217000  5.48934000  3.72123000  1
  Mo  Mo10  1  1.84837000  3.64901000  1.85451000  1
  Mo  Mo11  1  7.32081000  5.43880000  1.84593000  1
  Mo  Mo12  1  3.72558000  3.56651000  -0.04369200  1
  Mo  Mo13  1  5.46782000  5.46662000  3.64767000  1
  Mo  Mo14  1  5.52355000  3.66253000  1.72871000  1
  Mo  Mo15  1  3.70148000  5.48277000  1.88596000  1
