# generated using pymatgen
data_Mo
_symmetry_space_group_name_H-M   'P 1'
_cell_length_a   7.28235037
_cell_length_b   7.28235037
_cell_length_c   3.64117527
_cell_angle_alpha   90.00000000
_cell_angle_beta   90.00000000
_cell_angle_gamma   90.00000000
_symmetry_Int_Tables_number   1
_chemical_formula_structural   Mo
_chemical_formula_sum   Mo16
_cell_volume   193.10108955
_cell_formula_units_Z   16
loop_
 _symmetry_equiv_pos_site_id
 _symmetry_equiv_pos_as_xyz
  1  'x, y, z'
loop_
 _atom_site_type_symbol
 _atom_site_label
 _atom_site_symmetry_multiplicity
 _atom_site_fract_x
 _atom_site_fract_y
 _atom_site_fract_z
 _atom_site_occupancy
  Mo  Mo0  1  7.32015000  0.00536808  3.61387000  1
  Mo  Mo1  1  1.80604000  1.86872000  0.07124210  1
  Mo  Mo2  1  1.84747000  -0.02627990  1.78949000  1
  Mo  Mo3  1  0.09264420  1.81072000  1.83449000  1
  Mo  Mo4  1  3.62126000  7.29342000  0.02697600  1
  Mo  Mo5  1  5.47036000  1.72730000  0.10255100  1
  Mo  Mo6  1  5.46999000  -0.05382540  1.88987000  1
  Mo  Mo7  1  3.62407000  1.82728000  1.84358000  1
  Mo  Mo8  1  0.03209690  3.72927000  3.56927000  1
  Mo  Mo9  1  1.73389000  5.43012000  3.58016000  1
  Mo  Mo10  1  1.84745000  3.73829000  1.86677000  1
  Mo  Mo11  1  7.24125000  5.43227000  1.76955000  1
  Mo  Mo12  1  3.69560000  3.61284000  0.02146690  1
  Mo  Mo13  1  5.43121000  5.47117000  3.58638000  1
  Mo  Mo14  1  5.44531000  3.56598000  1.76258000  1
  Mo  Mo15  1  3.54521000  5.50901000  1.78376000  1
