# generated using pymatgen
data_Mo
_symmetry_space_group_name_H-M   'P 1'
_cell_length_a   7.28235037
_cell_length_b   7.28235037
_cell_length_c   3.64117527
_cell_angle_alpha   90.00000000
_cell_angle_beta   90.00000000
_cell_angle_gamma   90.00000000
_symmetry_Int_Tables_number   1
_chemical_formula_structural   Mo
_chemical_formula_sum   Mo16
_cell_volume   193.10108955
_cell_formula_units_Z   16
loop_
 _symmetry_equiv_pos_site_id
 _symmetry_equiv_pos_as_xyz
  1  'x, y, z'
loop_
 _atom_site_type_symbol
 _atom_site_label
 _atom_site_symmetry_multiplicity
 _atom_site_fract_x
 _atom_site_fract_y
 _atom_site_fract_z
 _atom_site_occupancy
  Mo  Mo0  1  7.35637000  0.00923939  3.67003000  1
  Mo  Mo1  1  1.78978000  1.84144000  0.00399323  1
  Mo  Mo2  1  1.91227000  -0.04602160  1.73094000  1
  Mo  Mo3  1  0.01942040  1.75530000  1.75242000  1
  Mo  Mo4  1  3.58719000  7.24356000  -0.12853100  1
  Mo  Mo5  1  5.40752000  1.83402000  0.01759310  1
  Mo  Mo6  1  5.56029000  -0.01066840  1.88099000  1
  Mo  Mo7  1  3.60491000  1.84787000  1.75615000  1
  Mo  Mo8  1  -0.05649710  3.63981000  3.73584000  1
  Mo  Mo9  1  1.80779000  5.36533000  3.72224000  1
  Mo  Mo10  1  1.77702000  3.67110000  1.90528000  1
  Mo  Mo11  1  7.25416000  5.46518000  1.86563000  1
  Mo  Mo12  1  3.59792000  3.69431000  -0.03498650  1
  Mo  Mo13  1  5.49498000  5.53745000  3.63267000  1
  Mo  Mo14  1  5.45036000  3.59292000  1.77583000  1
  Mo  Mo15  1  3.66051000  5.50081000  1.82591000  1
