# generated using pymatgen
data_Mo
_symmetry_space_group_name_H-M   'P 1'
_cell_length_a   7.28235037
_cell_length_b   7.28235037
_cell_length_c   3.64117527
_cell_angle_alpha   90.00000000
_cell_angle_beta   90.00000000
_cell_angle_gamma   90.00000000
_symmetry_Int_Tables_number   1
_chemical_formula_structural   Mo
_chemical_formula_sum   Mo16
_cell_volume   193.10108955
_cell_formula_units_Z   16
loop_
 _symmetry_equiv_pos_site_id
 _symmetry_equiv_pos_as_xyz
  1  'x, y, z'
loop_
 _atom_site_type_symbol
 _atom_site_label
 _atom_site_symmetry_multiplicity
 _atom_site_fract_x
 _atom_site_fract_y
 _atom_site_fract_z
 _atom_site_occupancy
  Mo  Mo0  1  7.27346000  -0.00651128  3.71840000  1
  Mo  Mo1  1  1.83322000  1.84448000  0.04572920  1
  Mo  Mo2  1  1.81827000  0.04758390  1.87732000  1
  Mo  Mo3  1  -0.07341280  1.81229000  1.86205000  1
  Mo  Mo4  1  3.58228000  7.28630000  -0.05636850  1
  Mo  Mo5  1  5.41556000  1.79879000  -0.09750060  1
  Mo  Mo6  1  5.47565000  0.01732840  1.70696000  1
  Mo  Mo7  1  3.60941000  1.88945000  1.67294000  1
  Mo  Mo8  1  -0.04673270  3.50010000  3.68215000  1
  Mo  Mo9  1  1.87848000  5.45869000  3.69386000  1
  Mo  Mo10  1  1.82719000  3.61358000  1.80858000  1
  Mo  Mo11  1  7.31020000  5.40727000  1.87615000  1
  Mo  Mo12  1  3.69059000  3.63104000  0.03298450  1
  Mo  Mo13  1  5.56477000  5.45990000  3.65187000  1
  Mo  Mo14  1  5.42689000  3.71260000  1.88949000  1
  Mo  Mo15  1  3.63818000  5.46875000  1.74739000  1
