# generated using pymatgen
data_Mo
_symmetry_space_group_name_H-M   'P 1'
_cell_length_a   7.28235037
_cell_length_b   7.28235037
_cell_length_c   3.64117527
_cell_angle_alpha   90.00000000
_cell_angle_beta   90.00000000
_cell_angle_gamma   90.00000000
_symmetry_Int_Tables_number   1
_chemical_formula_structural   Mo
_chemical_formula_sum   Mo16
_cell_volume   193.10108955
_cell_formula_units_Z   16
loop_
 _symmetry_equiv_pos_site_id
 _symmetry_equiv_pos_as_xyz
  1  'x, y, z'
loop_
 _atom_site_type_symbol
 _atom_site_label
 _atom_site_symmetry_multiplicity
 _atom_site_fract_x
 _atom_site_fract_y
 _atom_site_fract_z
 _atom_site_occupancy
  Mo  Mo0  1  7.32603000  -0.09049650  3.67778000  1
  Mo  Mo1  1  1.71651000  1.80860000  -0.11158500  1
  Mo  Mo2  1  1.84242000  -0.06975950  1.76981000  1
  Mo  Mo3  1  -0.00501112  1.72842000  1.85690000  1
  Mo  Mo4  1  3.65974000  7.37249000  -0.00961489  1
  Mo  Mo5  1  5.42426000  1.86283000  0.01067850  1
  Mo  Mo6  1  5.45955000  0.02000040  1.80693000  1
  Mo  Mo7  1  3.56134000  1.84102000  1.83732000  1
  Mo  Mo8  1  -0.03386940  3.65989000  3.59592000  1
  Mo  Mo9  1  1.86407000  5.42076000  3.67290000  1
  Mo  Mo10  1  1.82908000  3.62045000  1.88678000  1
  Mo  Mo11  1  7.26515000  5.45028000  1.91178000  1
  Mo  Mo12  1  3.66554000  3.71449000  0.00426938  1
  Mo  Mo13  1  5.44967000  5.46720000  3.63390000  1
  Mo  Mo14  1  5.45720000  3.65352000  1.74878000  1
  Mo  Mo15  1  3.74234000  5.48194000  1.81945000  1
