# generated using pymatgen
data_Mo
_symmetry_space_group_name_H-M   'P 1'
_cell_length_a   7.28235037
_cell_length_b   7.28235037
_cell_length_c   3.64117527
_cell_angle_alpha   90.00000000
_cell_angle_beta   90.00000000
_cell_angle_gamma   90.00000000
_symmetry_Int_Tables_number   1
_chemical_formula_structural   Mo
_chemical_formula_sum   Mo16
_cell_volume   193.10108955
_cell_formula_units_Z   16
loop_
 _symmetry_equiv_pos_site_id
 _symmetry_equiv_pos_as_xyz
  1  'x, y, z'
loop_
 _atom_site_type_symbol
 _atom_site_label
 _atom_site_symmetry_multiplicity
 _atom_site_fract_x
 _atom_site_fract_y
 _atom_site_fract_z
 _atom_site_occupancy
  Mo  Mo0  1  7.21454000  -0.07186910  3.67632000  1
  Mo  Mo1  1  1.88350000  1.82002000  0.04837090  1
  Mo  Mo2  1  1.76779000  0.05098670  1.79293000  1
  Mo  Mo3  1  -0.02687500  1.83926000  1.86024000  1
  Mo  Mo4  1  3.64476000  7.28982000  0.04290340  1
  Mo  Mo5  1  5.60151000  1.80914000  0.02579440  1
  Mo  Mo6  1  5.36767000  -0.05137360  1.81845000  1
  Mo  Mo7  1  3.72583000  1.77656000  1.93609000  1
  Mo  Mo8  1  0.00924610  3.67428000  3.57788000  1
  Mo  Mo9  1  1.85603000  5.55064000  3.57433000  1
  Mo  Mo10  1  1.83084000  3.60150000  1.81755000  1
  Mo  Mo11  1  7.28233000  5.53719000  1.73479000  1
  Mo  Mo12  1  3.61820000  3.63034000  0.06472940  1
  Mo  Mo13  1  5.36954000  5.40781000  3.61624000  1
  Mo  Mo14  1  5.49870000  3.68731000  1.78111000  1
  Mo  Mo15  1  3.58038000  5.39004000  1.74425000  1
