# generated using pymatgen
data_Mo
_symmetry_space_group_name_H-M   'P 1'
_cell_length_a   7.27808089
_cell_length_b   7.27808089
_cell_length_c   3.63904047
_cell_angle_alpha   90.00000000
_cell_angle_beta   90.00000000
_cell_angle_gamma   90.00000000
_symmetry_Int_Tables_number   1
_chemical_formula_structural   Mo
_chemical_formula_sum   Mo16
_cell_volume   192.76165285
_cell_formula_units_Z   16
loop_
 _symmetry_equiv_pos_site_id
 _symmetry_equiv_pos_as_xyz
  1  'x, y, z'
loop_
 _atom_site_type_symbol
 _atom_site_label
 _atom_site_symmetry_multiplicity
 _atom_site_fract_x
 _atom_site_fract_y
 _atom_site_fract_z
 _atom_site_occupancy
  Mo  Mo0  1  0.00102737  7.27195000  0.00262424  1
  Mo  Mo1  1  1.82615000  1.81282000  0.00492256  1
  Mo  Mo2  1  1.82452000  7.26971000  1.82151000  1
  Mo  Mo3  1  7.26641000  1.82245000  1.82330000  1
  Mo  Mo4  1  3.62393000  7.27353000  3.64181000  1
  Mo  Mo5  1  5.45076000  1.82561000  0.00428062  1
  Mo  Mo6  1  5.46700000  0.00492864  1.82353000  1
  Mo  Mo7  1  3.64104000  1.82510000  1.81707000  1
  Mo  Mo8  1  7.28578000  3.63979000  3.64950000  1
  Mo  Mo9  1  1.82087000  5.44675000  3.63011000  1
  Mo  Mo10  1  1.81392000  3.64192000  1.82150000  1
  Mo  Mo11  1  7.27987000  5.46405000  1.81862000  1
  Mo  Mo12  1  3.64581000  3.64170000  -0.00992854  1
  Mo  Mo13  1  5.45275000  5.45632000  3.63875000  1
  Mo  Mo14  1  5.46787000  3.64667000  1.81606000  1
  Mo  Mo15  1  3.63440000  5.45880000  1.80832000  1
