# generated using pymatgen
data_Mo
_symmetry_space_group_name_H-M   'P 1'
_cell_length_a   7.28235037
_cell_length_b   7.28235037
_cell_length_c   3.64117527
_cell_angle_alpha   90.00000000
_cell_angle_beta   90.00000000
_cell_angle_gamma   90.00000000
_symmetry_Int_Tables_number   1
_chemical_formula_structural   Mo
_chemical_formula_sum   Mo16
_cell_volume   193.10108955
_cell_formula_units_Z   16
loop_
 _symmetry_equiv_pos_site_id
 _symmetry_equiv_pos_as_xyz
  1  'x, y, z'
loop_
 _atom_site_type_symbol
 _atom_site_label
 _atom_site_symmetry_multiplicity
 _atom_site_fract_x
 _atom_site_fract_y
 _atom_site_fract_z
 _atom_site_occupancy
  Mo  Mo0  1  7.20730000  -0.07918460  3.61722000  1
  Mo  Mo1  1  1.82035000  1.85210000  -0.06123060  1
  Mo  Mo2  1  1.77412000  0.08432160  1.84095000  1
  Mo  Mo3  1  -0.13636600  1.81303000  1.86053000  1
  Mo  Mo4  1  3.61136000  7.33054000  0.09364630  1
  Mo  Mo5  1  5.48286000  1.82960000  0.00859052  1
  Mo  Mo6  1  5.35189000  0.01461680  1.80201000  1
  Mo  Mo7  1  3.64407000  1.80716000  1.82868000  1
  Mo  Mo8  1  0.00655000  3.65170000  3.63136000  1
  Mo  Mo9  1  1.94026000  5.51762000  3.63907000  1
  Mo  Mo10  1  1.82771000  3.54353000  1.76287000  1
  Mo  Mo11  1  7.39552000  5.50943000  1.77514000  1
  Mo  Mo12  1  3.61696000  3.60464000  -0.01549290  1
  Mo  Mo13  1  5.48243000  5.43102000  3.65720000  1
  Mo  Mo14  1  5.51891000  3.64951000  1.84986000  1
  Mo  Mo15  1  3.68007000  5.38201000  1.82159000  1
