# generated using pymatgen
data_Mo
_symmetry_space_group_name_H-M   'P 1'
_cell_length_a   7.28235037
_cell_length_b   7.28235037
_cell_length_c   3.64117527
_cell_angle_alpha   90.00000000
_cell_angle_beta   90.00000000
_cell_angle_gamma   90.00000000
_symmetry_Int_Tables_number   1
_chemical_formula_structural   Mo
_chemical_formula_sum   Mo16
_cell_volume   193.10108955
_cell_formula_units_Z   16
loop_
 _symmetry_equiv_pos_site_id
 _symmetry_equiv_pos_as_xyz
  1  'x, y, z'
loop_
 _atom_site_type_symbol
 _atom_site_label
 _atom_site_symmetry_multiplicity
 _atom_site_fract_x
 _atom_site_fract_y
 _atom_site_fract_z
 _atom_site_occupancy
  Mo  Mo0  1  7.21932000  0.06161100  3.59832000  1
  Mo  Mo1  1  1.71269000  1.77895000  0.04230560  1
  Mo  Mo2  1  1.84993000  0.07905640  1.77684000  1
  Mo  Mo3  1  -0.03816670  1.78388000  1.79776000  1
  Mo  Mo4  1  3.62232000  7.28515000  0.01120100  1
  Mo  Mo5  1  5.43536000  1.82952000  0.09024200  1
  Mo  Mo6  1  5.41743000  -0.10934800  1.93388000  1
  Mo  Mo7  1  3.70062000  1.86155000  1.88714000  1
  Mo  Mo8  1  0.08345480  3.68935000  3.60908000  1
  Mo  Mo9  1  1.84784000  5.48650000  3.59647000  1
  Mo  Mo10  1  1.86983000  3.63392000  1.85530000  1
  Mo  Mo11  1  7.29153000  5.50095000  1.75405000  1
  Mo  Mo12  1  3.73263000  3.55063000  -0.01162890  1
  Mo  Mo13  1  5.39116000  5.40970000  3.56056000  1
  Mo  Mo14  1  5.50483000  3.65126000  1.76760000  1
  Mo  Mo15  1  3.58322000  5.44899000  1.84286000  1
