# generated using pymatgen
data_Mo
_symmetry_space_group_name_H-M   'P 1'
_cell_length_a   7.28235037
_cell_length_b   7.28235037
_cell_length_c   3.64117527
_cell_angle_alpha   90.00000000
_cell_angle_beta   90.00000000
_cell_angle_gamma   90.00000000
_symmetry_Int_Tables_number   1
_chemical_formula_structural   Mo
_chemical_formula_sum   Mo16
_cell_volume   193.10108955
_cell_formula_units_Z   16
loop_
 _symmetry_equiv_pos_site_id
 _symmetry_equiv_pos_as_xyz
  1  'x, y, z'
loop_
 _atom_site_type_symbol
 _atom_site_label
 _atom_site_symmetry_multiplicity
 _atom_site_fract_x
 _atom_site_fract_y
 _atom_site_fract_z
 _atom_site_occupancy
  Mo  Mo0  1  7.34763000  -0.08736840  3.67764000  1
  Mo  Mo1  1  1.94324000  1.87145000  0.05090940  1
  Mo  Mo2  1  1.79189000  -0.03370870  1.79852000  1
  Mo  Mo3  1  0.07785390  1.86108000  1.82641000  1
  Mo  Mo4  1  3.56370000  7.26599000  -0.02619110  1
  Mo  Mo5  1  5.57105000  1.76359000  -0.01405320  1
  Mo  Mo6  1  5.50033000  0.04921850  1.82230000  1
  Mo  Mo7  1  3.68612000  1.76618000  1.96331000  1
  Mo  Mo8  1  -0.06146530  3.64270000  3.61064000  1
  Mo  Mo9  1  1.79953000  5.48059000  3.56390000  1
  Mo  Mo10  1  1.80354000  3.67579000  1.79558000  1
  Mo  Mo11  1  7.20425000  5.48897000  1.74506000  1
  Mo  Mo12  1  3.57010000  3.64193000  0.06720430  1
  Mo  Mo13  1  5.38152000  5.49831000  3.62601000  1
  Mo  Mo14  1  5.45033000  3.61967000  1.81806000  1
  Mo  Mo15  1  3.59439000  5.43726000  1.78671000  1
