# generated using pymatgen
data_Mo
_symmetry_space_group_name_H-M   'P 1'
_cell_length_a   7.28235037
_cell_length_b   7.28235037
_cell_length_c   3.64117527
_cell_angle_alpha   90.00000000
_cell_angle_beta   90.00000000
_cell_angle_gamma   90.00000000
_symmetry_Int_Tables_number   1
_chemical_formula_structural   Mo
_chemical_formula_sum   Mo16
_cell_volume   193.10108955
_cell_formula_units_Z   16
loop_
 _symmetry_equiv_pos_site_id
 _symmetry_equiv_pos_as_xyz
  1  'x, y, z'
loop_
 _atom_site_type_symbol
 _atom_site_label
 _atom_site_symmetry_multiplicity
 _atom_site_fract_x
 _atom_site_fract_y
 _atom_site_fract_z
 _atom_site_occupancy
  Mo  Mo0  1  7.22883000  0.03251340  3.62047000  1
  Mo  Mo1  1  1.85896000  1.89394000  -0.04898540  1
  Mo  Mo2  1  1.79157000  0.01889300  1.75078000  1
  Mo  Mo3  1  -0.00486123  1.85033000  1.80535000  1
  Mo  Mo4  1  3.54510000  7.24453000  0.03620330  1
  Mo  Mo5  1  5.45713000  1.72913000  -0.04198390  1
  Mo  Mo6  1  5.42394000  0.03403360  1.87266000  1
  Mo  Mo7  1  3.66596000  1.82570000  1.75302000  1
  Mo  Mo8  1  0.03571820  3.57346000  3.66391000  1
  Mo  Mo9  1  1.80601000  5.44659000  3.72173000  1
  Mo  Mo10  1  1.83864000  3.67347000  1.92742000  1
  Mo  Mo11  1  7.27106000  5.45446000  1.88658000  1
  Mo  Mo12  1  3.72884000  3.58058000  0.00599913  1
  Mo  Mo13  1  5.49089000  5.46518000  3.60713000  1
  Mo  Mo14  1  5.46417000  3.68099000  1.79430000  1
  Mo  Mo15  1  3.62205000  5.43787000  1.75741000  1
