# generated using pymatgen
data_Mo
_symmetry_space_group_name_H-M   'P 1'
_cell_length_a   7.28235037
_cell_length_b   7.28235037
_cell_length_c   3.64117527
_cell_angle_alpha   90.00000000
_cell_angle_beta   90.00000000
_cell_angle_gamma   90.00000000
_symmetry_Int_Tables_number   1
_chemical_formula_structural   Mo
_chemical_formula_sum   Mo16
_cell_volume   193.10108955
_cell_formula_units_Z   16
loop_
 _symmetry_equiv_pos_site_id
 _symmetry_equiv_pos_as_xyz
  1  'x, y, z'
loop_
 _atom_site_type_symbol
 _atom_site_label
 _atom_site_symmetry_multiplicity
 _atom_site_fract_x
 _atom_site_fract_y
 _atom_site_fract_z
 _atom_site_occupancy
  Mo  Mo0  1  7.24202000  -0.01263970  3.61928000  1
  Mo  Mo1  1  1.80453000  1.76492000  0.10204200  1
  Mo  Mo2  1  1.89630000  0.03394260  1.90934000  1
  Mo  Mo3  1  0.02745910  1.78455000  1.82579000  1
  Mo  Mo4  1  3.69567000  7.27851000  -0.03796700  1
  Mo  Mo5  1  5.50759000  1.83552000  0.02311030  1
  Mo  Mo6  1  5.48862000  -0.09365070  1.76154000  1
  Mo  Mo7  1  3.76516000  1.83534000  1.84179000  1
  Mo  Mo8  1  0.04826220  3.75531000  3.64302000  1
  Mo  Mo9  1  1.76774000  5.47677000  3.58297000  1
  Mo  Mo10  1  1.80585000  3.65179000  1.76967000  1
  Mo  Mo11  1  7.23151000  5.43434000  1.79153000  1
  Mo  Mo12  1  3.62064000  3.57277000  -0.02196660  1
  Mo  Mo13  1  5.34410000  5.44936000  3.59819000  1
  Mo  Mo14  1  5.46447000  3.68855000  1.89510000  1
  Mo  Mo15  1  3.51408000  5.48627000  1.80856000  1
