# generated using pymatgen
data_Mo
_symmetry_space_group_name_H-M   'P 1'
_cell_length_a   7.28235037
_cell_length_b   7.28235037
_cell_length_c   3.64117527
_cell_angle_alpha   90.00000000
_cell_angle_beta   90.00000000
_cell_angle_gamma   90.00000000
_symmetry_Int_Tables_number   1
_chemical_formula_structural   Mo
_chemical_formula_sum   Mo16
_cell_volume   193.10108955
_cell_formula_units_Z   16
loop_
 _symmetry_equiv_pos_site_id
 _symmetry_equiv_pos_as_xyz
  1  'x, y, z'
loop_
 _atom_site_type_symbol
 _atom_site_label
 _atom_site_symmetry_multiplicity
 _atom_site_fract_x
 _atom_site_fract_y
 _atom_site_fract_z
 _atom_site_occupancy
  Mo  Mo0  1  7.18487000  0.10166000  3.63106000  1
  Mo  Mo1  1  1.84280000  1.82973000  -0.00628822  1
  Mo  Mo2  1  1.82605000  0.00879756  1.89154000  1
  Mo  Mo3  1  -0.00295241  1.86763000  1.78770000  1
  Mo  Mo4  1  3.65347000  7.29061000  0.04067630  1
  Mo  Mo5  1  5.38109000  1.76784000  -0.03790190  1
  Mo  Mo6  1  5.50692000  -0.05555810  1.76385000  1
  Mo  Mo7  1  3.73935000  1.79186000  1.72643000  1
  Mo  Mo8  1  0.01445800  3.61552000  3.57859000  1
  Mo  Mo9  1  1.78900000  5.50542000  3.67876000  1
  Mo  Mo10  1  1.84460000  3.65944000  1.79674000  1
  Mo  Mo11  1  7.23746000  5.41880000  1.88316000  1
  Mo  Mo12  1  3.66113000  3.62018000  0.02931720  1
  Mo  Mo13  1  5.51014000  5.43456000  3.68449000  1
  Mo  Mo14  1  5.47123000  3.62003000  1.81379000  1
  Mo  Mo15  1  3.56439000  5.46513000  1.85008000  1
