# generated using pymatgen
data_Mo
_symmetry_space_group_name_H-M   'P 1'
_cell_length_a   7.28235037
_cell_length_b   7.28235037
_cell_length_c   3.64117527
_cell_angle_alpha   90.00000000
_cell_angle_beta   90.00000000
_cell_angle_gamma   90.00000000
_symmetry_Int_Tables_number   1
_chemical_formula_structural   Mo
_chemical_formula_sum   Mo16
_cell_volume   193.10108955
_cell_formula_units_Z   16
loop_
 _symmetry_equiv_pos_site_id
 _symmetry_equiv_pos_as_xyz
  1  'x, y, z'
loop_
 _atom_site_type_symbol
 _atom_site_label
 _atom_site_symmetry_multiplicity
 _atom_site_fract_x
 _atom_site_fract_y
 _atom_site_fract_z
 _atom_site_occupancy
  Mo  Mo0  1  7.22968000  -0.11203800  3.71642000  1
  Mo  Mo1  1  1.78214000  1.77602000  0.06846950  1
  Mo  Mo2  1  1.81733000  -0.05326240  1.91038000  1
  Mo  Mo3  1  -0.03228110  1.77262000  1.79960000  1
  Mo  Mo4  1  3.57058000  7.31865000  -0.12108900  1
  Mo  Mo5  1  5.46960000  1.79556000  -0.08784520  1
  Mo  Mo6  1  5.45434000  0.03176460  1.78525000  1
  Mo  Mo7  1  3.56197000  1.91543000  1.69723000  1
  Mo  Mo8  1  -0.01024460  3.65149000  3.67744000  1
  Mo  Mo9  1  1.92250000  5.45791000  3.70792000  1
  Mo  Mo10  1  1.82619000  3.70383000  1.77623000  1
  Mo  Mo11  1  7.29463000  5.41922000  1.84857000  1
  Mo  Mo12  1  3.65448000  3.60965000  0.00903244  1
  Mo  Mo13  1  5.50314000  5.48776000  3.63758000  1
  Mo  Mo14  1  5.47281000  3.67491000  1.89166000  1
  Mo  Mo15  1  3.70713000  5.49214000  1.79515000  1
