# generated using pymatgen
data_Mo
_symmetry_space_group_name_H-M   'P 1'
_cell_length_a   7.28235037
_cell_length_b   7.28235037
_cell_length_c   3.64117527
_cell_angle_alpha   90.00000000
_cell_angle_beta   90.00000000
_cell_angle_gamma   90.00000000
_symmetry_Int_Tables_number   1
_chemical_formula_structural   Mo
_chemical_formula_sum   Mo16
_cell_volume   193.10108955
_cell_formula_units_Z   16
loop_
 _symmetry_equiv_pos_site_id
 _symmetry_equiv_pos_as_xyz
  1  'x, y, z'
loop_
 _atom_site_type_symbol
 _atom_site_label
 _atom_site_symmetry_multiplicity
 _atom_site_fract_x
 _atom_site_fract_y
 _atom_site_fract_z
 _atom_site_occupancy
  Mo  Mo0  1  7.24958000  0.00199514  3.61683000  1
  Mo  Mo1  1  1.88130000  1.82440000  -0.05916020  1
  Mo  Mo2  1  1.82542000  -0.01915380  1.75096000  1
  Mo  Mo3  1  -0.03290680  1.79463000  1.82177000  1
  Mo  Mo4  1  3.59737000  7.27396000  0.13241400  1
  Mo  Mo5  1  5.45260000  1.73134000  0.02907470  1
  Mo  Mo6  1  5.38738000  0.00723197  1.84103000  1
  Mo  Mo7  1  3.57587000  1.87959000  1.84838000  1
  Mo  Mo8  1  -0.03221210  3.59736000  3.60992000  1
  Mo  Mo9  1  1.82644000  5.52444000  3.63380000  1
  Mo  Mo10  1  1.85132000  3.64879000  1.82330000  1
  Mo  Mo11  1  7.27797000  5.50665000  1.80692000  1
  Mo  Mo12  1  3.71627000  3.67302000  0.03554570  1
  Mo  Mo13  1  5.48173000  5.42477000  3.67440000  1
  Mo  Mo14  1  5.50463000  3.65533000  1.75413000  1
  Mo  Mo15  1  3.66124000  5.41729000  1.79269000  1
