# generated using pymatgen
data_Mo
_symmetry_space_group_name_H-M   'P 1'
_cell_length_a   7.28235037
_cell_length_b   7.28235037
_cell_length_c   3.64117527
_cell_angle_alpha   90.00000000
_cell_angle_beta   90.00000000
_cell_angle_gamma   90.00000000
_symmetry_Int_Tables_number   1
_chemical_formula_structural   Mo
_chemical_formula_sum   Mo16
_cell_volume   193.10108955
_cell_formula_units_Z   16
loop_
 _symmetry_equiv_pos_site_id
 _symmetry_equiv_pos_as_xyz
  1  'x, y, z'
loop_
 _atom_site_type_symbol
 _atom_site_label
 _atom_site_symmetry_multiplicity
 _atom_site_fract_x
 _atom_site_fract_y
 _atom_site_fract_z
 _atom_site_occupancy
  Mo  Mo0  1  7.29775000  0.00260653  3.59650000  1
  Mo  Mo1  1  1.86807000  1.79357000  0.03183000  1
  Mo  Mo2  1  1.82846000  0.01849640  1.79759000  1
  Mo  Mo3  1  -0.00772928  1.85516000  1.82785000  1
  Mo  Mo4  1  3.76065000  7.24297000  0.06017500  1
  Mo  Mo5  1  5.43074000  1.80738000  0.00788909  1
  Mo  Mo6  1  5.47564000  0.02307300  1.91482000  1
  Mo  Mo7  1  3.68627000  1.79398000  1.83182000  1
  Mo  Mo8  1  -0.02578000  3.57391000  3.64758000  1
  Mo  Mo9  1  1.82622000  5.46846000  3.64698000  1
  Mo  Mo10  1  1.72392000  3.63509000  1.86861000  1
  Mo  Mo11  1  7.31758000  5.41268000  1.80088000  1
  Mo  Mo12  1  3.61736000  3.62172000  -0.01817520  1
  Mo  Mo13  1  5.48543000  5.48929000  3.56862000  1
  Mo  Mo14  1  5.36662000  3.73517000  1.78437000  1
  Mo  Mo15  1  3.57280000  5.46810000  1.74467000  1
