# generated using pymatgen
data_Mo
_symmetry_space_group_name_H-M   'P 1'
_cell_length_a   7.28235037
_cell_length_b   7.28235037
_cell_length_c   3.64117527
_cell_angle_alpha   90.00000000
_cell_angle_beta   90.00000000
_cell_angle_gamma   90.00000000
_symmetry_Int_Tables_number   1
_chemical_formula_structural   Mo
_chemical_formula_sum   Mo16
_cell_volume   193.10108955
_cell_formula_units_Z   16
loop_
 _symmetry_equiv_pos_site_id
 _symmetry_equiv_pos_as_xyz
  1  'x, y, z'
loop_
 _atom_site_type_symbol
 _atom_site_label
 _atom_site_symmetry_multiplicity
 _atom_site_fract_x
 _atom_site_fract_y
 _atom_site_fract_z
 _atom_site_occupancy
  Mo  Mo0  1  7.29360000  0.06411100  3.64190000  1
  Mo  Mo1  1  1.81890000  1.78298000  0.06225020  1
  Mo  Mo2  1  1.88043000  -0.03295440  1.85734000  1
  Mo  Mo3  1  0.06757890  1.86567000  1.79434000  1
  Mo  Mo4  1  3.70877000  7.22320000  -0.02182700  1
  Mo  Mo5  1  5.46861000  1.84258000  0.05318960  1
  Mo  Mo6  1  5.53118000  0.07351660  1.81891000  1
  Mo  Mo7  1  3.65847000  1.78369000  1.85999000  1
  Mo  Mo8  1  -0.03762880  3.58941000  3.62021000  1
  Mo  Mo9  1  1.73772000  5.45121000  3.54162000  1
  Mo  Mo10  1  1.79178000  3.58881000  1.75181000  1
  Mo  Mo11  1  7.15983000  5.50407000  1.77975000  1
  Mo  Mo12  1  3.70473000  3.60623000  0.03534740  1
  Mo  Mo13  1  5.43010000  5.46417000  3.61021000  1
  Mo  Mo14  1  5.38077000  3.67147000  1.90709000  1
  Mo  Mo15  1  3.62915000  5.46347000  1.79987000  1
