# generated using pymatgen
data_Mo
_symmetry_space_group_name_H-M   'P 1'
_cell_length_a   9.53828331
_cell_length_b   12.74808025
_cell_length_c   15.88460424
_cell_angle_alpha   90.00000000
_cell_angle_beta   90.00000000
_cell_angle_gamma   90.00000000
_symmetry_Int_Tables_number   1
_chemical_formula_structural   Mo
_chemical_formula_sum   Mo121
_cell_volume   1931.48529274
_cell_formula_units_Z   121
loop_
 _symmetry_equiv_pos_site_id
 _symmetry_equiv_pos_as_xyz
  1  'x, y, z'
loop_
 _atom_site_type_symbol
 _atom_site_label
 _atom_site_symmetry_multiplicity
 _atom_site_fract_x
 _atom_site_fract_y
 _atom_site_fract_z
 _atom_site_occupancy
  Mo  Mo0  1  1.82896962  1.68288877  1.71224991  1
  Mo  Mo1  1  0.21700533  3.38934986  3.40154312  1
  Mo  Mo2  1  3.22226839  3.30385801  0.11714370  1
  Mo  Mo3  1  1.78462507  4.85031727  1.73957553  1
  Mo  Mo4  1  3.44913458  3.34197685  3.29501094  1
  Mo  Mo5  1  0.07361057  3.32103581  0.27807690  1
  Mo  Mo6  1  3.39217973  0.07505698  3.20017555  1
  Mo  Mo7  1  0.17075037  0.18678431  3.25697153  1
  Mo  Mo8  1  3.27927289  0.04539925  0.11727179  1
  Mo  Mo9  1  0.08367021  0.08955118  0.18235383  1
  Mo  Mo10  1  3.26812221  0.13416661  6.31219818  1
  Mo  Mo11  1  0.18962808  3.35317717  6.45935140  1
  Mo  Mo12  1  3.32053934  3.28994696  6.60807347  1
  Mo  Mo13  1  1.78439669  1.75754768  4.86609503  1
  Mo  Mo14  1  1.69130887  4.98669713  5.01752782  1
  Mo  Mo15  1  0.09014257  0.18083066  6.47585401  1
  Mo  Mo16  1  1.80519872  1.66801458  11.16547440  1
  Mo  Mo17  1  1.74673460  4.90598130  11.35661472  1
  Mo  Mo18  1  3.34409180  3.30501974  9.73011483  1
  Mo  Mo19  1  0.15839327  0.10586791  9.60744742  1
  Mo  Mo20  1  1.68265047  4.90899983  8.07761985  1
  Mo  Mo21  1  3.28820932  0.05510769  9.52668195  1
  Mo  Mo22  1  0.22334126  3.27745582  9.58306090  1
  Mo  Mo23  1  1.72540632  1.78975855  8.06542659  1
  Mo  Mo24  1  1.74497711  1.72266582  14.41803729  1
  Mo  Mo25  1  0.15753140  3.26448806  12.96169697  1
  Mo  Mo26  1  1.71047255  4.89664770  14.55595621  1
  Mo  Mo27  1  0.18120500  0.12748116  12.81990560  1
  Mo  Mo28  1  3.39362942  3.38116806  12.82645899  1
  Mo  Mo29  1  4.73304151  1.43633265  7.83101408  1
  Mo  Mo30  1  3.44032723  0.21228590  12.80074192  1
  Mo  Mo31  1  1.78010721  8.10041768  1.80842576  1
  Mo  Mo32  1  0.12810671  9.70522191  0.21537692  1
  Mo  Mo33  1  1.71830682  11.21710711  1.70336313  1
  Mo  Mo34  1  3.32226705  9.63195310  0.10512916  1
  Mo  Mo35  1  3.25692189  6.50278246  0.16774276  1
  Mo  Mo36  1  3.33078645  6.47221987  3.30952768  1
  Mo  Mo37  1  0.11391566  6.61968090  3.34636563  1
  Mo  Mo38  1  3.34444926  9.69243288  3.27512242  1
  Mo  Mo39  1  0.22969109  9.65907021  3.39989485  1
  Mo  Mo40  1  0.17549462  6.50354702  0.24963323  1
  Mo  Mo41  1  -0.00507975  6.48932817  6.50914718  1
  Mo  Mo42  1  3.23873129  6.36995731  6.51999998  1
  Mo  Mo43  1  3.24287183  9.65562472  6.49653689  1
  Mo  Mo44  1  1.67849006  8.10379367  4.97174350  1
  Mo  Mo45  1  1.63699523  11.32901108  4.87816914  1
  Mo  Mo46  1  0.16508169  9.75871141  6.54933133  1
  Mo  Mo47  1  1.86592673  8.05620221  11.29932227  1
  Mo  Mo48  1  1.64348904  11.29177595  11.23567503  1
  Mo  Mo49  1  3.23228713  9.58353751  9.68171909  1
  Mo  Mo50  1  1.69205358  11.20261023  8.11673163  1
  Mo  Mo51  1  0.10410644  9.64153494  9.65176219  1
  Mo  Mo52  1  0.10528704  6.44949154  9.61982935  1
  Mo  Mo53  1  1.67361474  8.06455280  8.14171392  1
  Mo  Mo54  1  3.36969964  6.46753320  9.73440432  1
  Mo  Mo55  1  1.82540498  8.15411570  14.58008457  1
  Mo  Mo56  1  0.15442748  9.63408792  12.85535345  1
  Mo  Mo57  1  1.73372713  11.28393175  14.34614867  1
  Mo  Mo58  1  3.33452982  9.83018299  12.86270118  1
  Mo  Mo59  1  0.44878556  6.77530388  13.06039488  1
  Mo  Mo60  1  3.42475798  6.64055243  12.88941118  1
  Mo  Mo61  1  8.13024550  1.68859816  1.75688242  1
  Mo  Mo62  1  6.44383180  0.03240330  0.19107975  1
  Mo  Mo63  1  8.16488906  4.99080789  1.84202674  1
  Mo  Mo64  1  6.58290252  3.33455961  3.31354907  1
  Mo  Mo65  1  5.09141224  4.83464873  1.66351658  1
  Mo  Mo66  1  4.87322432  1.68123057  1.72451268  1
  Mo  Mo67  1  6.58167128  0.16532794  3.30813756  1
  Mo  Mo68  1  6.53274929  3.28623338  0.07690355  1
  Mo  Mo69  1  8.11911468  1.66332792  4.86854759  1
  Mo  Mo70  1  6.53354364  3.23287296  6.43749687  1
  Mo  Mo71  1  8.05923066  4.83033938  4.87839752  1
  Mo  Mo72  1  4.88323312  4.90447204  4.88975672  1
  Mo  Mo73  1  4.81574321  1.71478190  4.84994988  1
  Mo  Mo74  1  6.48318189  0.06530644  6.55471305  1
  Mo  Mo75  1  6.56383814  0.16237892  9.68787530  1
  Mo  Mo76  1  5.05376008  4.87362149  11.34033056  1
  Mo  Mo77  1  8.22290636  1.67586871  8.06062078  1
  Mo  Mo78  1  8.05256806  1.78054410  11.29296748  1
  Mo  Mo79  1  6.06708181  2.85009584  9.06057758  1
  Mo  Mo80  1  7.35702580  4.17561675  10.37072783  1
  Mo  Mo81  1  4.88112810  1.67710988  11.24441287  1
  Mo  Mo82  1  8.05872427  4.88722473  7.95806034  1
  Mo  Mo83  1  4.84560082  4.96859589  8.08394486  1
  Mo  Mo84  1  8.55899559  5.34585228  11.87443124  1
  Mo  Mo85  1  6.58111524  0.08240869  12.86299906  1
  Mo  Mo86  1  8.11186624  1.72327151  14.52507588  1
  Mo  Mo87  1  4.91104528  4.90690473  14.48297536  1
  Mo  Mo88  1  4.91737029  1.65655609  14.43491722  1
  Mo  Mo89  1  8.14598355  4.87142710  14.53103350  1
  Mo  Mo90  1  6.49127432  3.40241691  12.88404932  1
  Mo  Mo91  1  4.97493083  8.10909595  1.68274976  1
  Mo  Mo92  1  6.50748898  6.45305619  0.24944160  1
  Mo  Mo93  1  8.16036127  8.14717507  1.73180084  1
  Mo  Mo94  1  6.52777468  9.66134403  0.15567858  1
  Mo  Mo95  1  8.08735063  11.26139209  1.72869294  1
  Mo  Mo96  1  6.50952450  9.77703109  3.36089229  1
  Mo  Mo97  1  4.92797485  11.19407098  1.68484486  1
  Mo  Mo98  1  6.50316970  6.51613746  3.43327738  1
  Mo  Mo99  1  8.09734951  11.35482744  4.86436732  1
  Mo  Mo100  1  4.92151083  11.19317733  4.87773225  1
  Mo  Mo101  1  6.48879198  9.72799987  6.43480601  1
  Mo  Mo102  1  4.79732423  8.10081485  4.86187505  1
  Mo  Mo103  1  8.13741450  8.18864011  4.91444112  1
  Mo  Mo104  1  6.41507636  6.70072440  6.44122038  1
  Mo  Mo105  1  8.17685395  8.20512286  11.33755034  1
  Mo  Mo106  1  6.45762369  9.70291829  9.58104524  1
  Mo  Mo107  1  8.16054000  11.32633015  11.18851053  1
  Mo  Mo108  1  8.03768394  11.28343528  8.08110506  1
  Mo  Mo109  1  4.94526188  8.15045176  11.25603023  1
  Mo  Mo110  1  6.53956084  6.63957935  9.54656054  1
  Mo  Mo111  1  4.84756683  11.33953621  11.29396041  1
  Mo  Mo112  1  4.80511879  11.23815737  8.06016402  1
  Mo  Mo113  1  4.81824541  8.05988600  7.91202779  1
  Mo  Mo114  1  8.02496442  8.05101908  8.09070676  1
  Mo  Mo115  1  6.48657773  6.51996026  12.94094459  1
  Mo  Mo116  1  4.98460203  8.19583890  14.43511581  1
  Mo  Mo117  1  8.14395796  11.26665465  14.39639127  1
  Mo  Mo118  1  6.63831832  9.73245816  12.79736594  1
  Mo  Mo119  1  8.10853990  8.10329720  14.44156989  1
  Mo  Mo120  1  4.96448514  11.24034183  14.39907220  1
