# generated using pymatgen
data_Mo
_symmetry_space_group_name_H-M   'P 1'
_cell_length_a   9.54223442
_cell_length_b   12.71155308
_cell_length_c   15.97575210
_cell_angle_alpha   90.00000000
_cell_angle_beta   90.00000000
_cell_angle_gamma   90.00000000
_symmetry_Int_Tables_number   1
_chemical_formula_structural   Mo
_chemical_formula_sum   Mo121
_cell_volume   1937.80472022
_cell_formula_units_Z   121
loop_
 _symmetry_equiv_pos_site_id
 _symmetry_equiv_pos_as_xyz
  1  'x, y, z'
loop_
 _atom_site_type_symbol
 _atom_site_label
 _atom_site_symmetry_multiplicity
 _atom_site_fract_x
 _atom_site_fract_y
 _atom_site_fract_z
 _atom_site_occupancy
  Mo  Mo0  1  1.79025502  1.79322390  1.71126690  1
  Mo  Mo1  1  0.08732481  3.26361428  3.34150024  1
  Mo  Mo2  1  3.25447926  3.39145489  0.03240876  1
  Mo  Mo3  1  1.70232054  4.88280616  1.70567667  1
  Mo  Mo4  1  3.29705639  3.29979690  3.23049984  1
  Mo  Mo5  1  0.17478666  3.35779433  0.16595250  1
  Mo  Mo6  1  3.35261120  0.11058734  3.37300612  1
  Mo  Mo7  1  0.10933822  0.14471060  3.21054181  1
  Mo  Mo8  1  3.40814615  0.15913102  0.18363869  1
  Mo  Mo9  1  0.26708410  0.25404386  0.08291776  1
  Mo  Mo10  1  3.17069526  0.04288682  6.46855593  1
  Mo  Mo11  1  0.10296158  3.33812425  6.54536951  1
  Mo  Mo12  1  3.32506714  3.32911832  6.41837291  1
  Mo  Mo13  1  1.70365108  1.70346242  4.93921490  1
  Mo  Mo14  1  1.72928871  4.93389275  4.91333896  1
  Mo  Mo15  1  0.04645564  0.11877708  6.42486671  1
  Mo  Mo16  1  1.78665066  1.64542527  11.32057112  1
  Mo  Mo17  1  1.78488323  4.82242568  11.18612748  1
  Mo  Mo18  1  3.25570057  3.38228015  9.72340258  1
  Mo  Mo19  1  0.19529477  0.11496420  9.83853359  1
  Mo  Mo20  1  1.64746079  4.96822851  7.97407641  1
  Mo  Mo21  1  3.33999097  0.12771550  9.67330892  1
  Mo  Mo22  1  0.30162936  3.22093786  9.62220246  1
  Mo  Mo23  1  1.80723424  1.75169929  8.03944143  1
  Mo  Mo24  1  1.81901047  1.72892132  14.53669323  1
  Mo  Mo25  1  0.23592376  3.17837066  12.88941118  1
  Mo  Mo26  1  1.72978517  4.99205899  14.42558361  1
  Mo  Mo27  1  0.13307338  0.03227432  12.94888809  1
  Mo  Mo28  1  3.32222734  3.36221290  12.86190683  1
  Mo  Mo29  1  4.56250462  1.57292103  7.79170372  1
  Mo  Mo30  1  3.35264099  0.12049387  12.96219344  1
  Mo  Mo31  1  1.69167626  8.11756570  1.71641032  1
  Mo  Mo32  1  0.16592172  9.69118178  0.12701448  1
  Mo  Mo33  1  1.79455444  11.30051380  1.76086409  1
  Mo  Mo34  1  3.36420870  9.73283548  0.14621291  1
  Mo  Mo35  1  3.45875614  6.42596887  0.04466577  1
  Mo  Mo36  1  3.34560107  6.47810798  3.24241508  1
  Mo  Mo37  1  -0.01536967  6.42764693  3.19106039  1
  Mo  Mo38  1  3.35874755  9.56460220  3.33883917  1
  Mo  Mo39  1  0.19095365  9.74437340  3.18251121  1
  Mo  Mo40  1  0.20327798  6.55674857  0.22033167  1
  Mo  Mo41  1  0.14683251  6.57667681  6.43075483  1
  Mo  Mo42  1  3.30217001  6.48108679  6.47391779  1
  Mo  Mo43  1  3.26910522  9.61194543  6.39121609  1
  Mo  Mo44  1  1.72503894  7.97256714  4.84937398  1
  Mo  Mo45  1  1.59826077  11.21293678  4.95718705  1
  Mo  Mo46  1  0.10709716  9.73783988  6.40654703  1
  Mo  Mo47  1  1.72301334  8.03747542  11.20261023  1
  Mo  Mo48  1  1.71792951  11.28591763  11.28571904  1
  Mo  Mo49  1  3.37638211  9.74511810  9.64921034  1
  Mo  Mo50  1  1.77397086  11.20439752  8.02659283  1
  Mo  Mo51  1  0.22016386  9.59761735  9.60254232  1
  Mo  Mo52  1  0.10823011  6.50660526  9.78445826  1
  Mo  Mo53  1  1.75103402  8.07283390  7.98421429  1
  Mo  Mo54  1  3.26235325  6.49437228  9.58616879  1
  Mo  Mo55  1  1.88539822  8.32636044  14.57899234  1
  Mo  Mo56  1  0.14695464  9.74156339  12.85803437  1
  Mo  Mo57  1  1.71425564  11.26734971  14.50074892  1
  Mo  Mo58  1  3.35327647  9.72179402  12.81732397  1
  Mo  Mo59  1  0.43430557  6.83758087  13.26503915  1
  Mo  Mo60  1  3.29031435  6.60932457  12.84959441  1
  Mo  Mo61  1  8.08082704  1.82920793  1.59150880  1
  Mo  Mo62  1  6.55718546  0.16878535  0.12245988  1
  Mo  Mo63  1  8.11049599  4.95944102  1.65047932  1
  Mo  Mo64  1  6.49565317  3.30865389  3.17613655  1
  Mo  Mo65  1  4.87829823  4.99165189  1.68194548  1
  Mo  Mo66  1  4.94050571  1.72592265  1.63689594  1
  Mo  Mo67  1  6.44751560  0.26268638  3.21094892  1
  Mo  Mo68  1  6.50213705  3.42823326  0.10926375  1
  Mo  Mo69  1  8.09875948  1.66673369  4.78504161  1
  Mo  Mo70  1  6.54082186  3.18129982  6.40323062  1
  Mo  Mo71  1  8.04536927  4.82606975  4.97570532  1
  Mo  Mo72  1  4.79470288  4.89818675  4.84387311  1
  Mo  Mo73  1  4.82949539  1.65266378  4.85884660  1
  Mo  Mo74  1  6.50097531  0.04288345  6.39661766  1
  Mo  Mo75  1  6.42362554  0.10335181  9.69637484  1
  Mo  Mo76  1  4.85865794  4.87481302  11.42135420  1
  Mo  Mo77  1  8.09443027  1.72673686  8.06226905  1
  Mo  Mo78  1  8.16436281  1.67724889  11.26645607  1
  Mo  Mo79  1  5.92915297  3.00813166  9.14711202  1
  Mo  Mo80  1  7.41739635  4.13076580  10.46396459  1
  Mo  Mo81  1  5.04286756  1.75321848  11.25096625  1
  Mo  Mo82  1  8.09832258  4.98706452  8.14635093  1
  Mo  Mo83  1  4.82360727  4.93471689  8.04497209  1
  Mo  Mo84  1  8.58998514  5.48042500  11.88535354  1
  Mo  Mo85  1  6.47807819  0.25495041  12.97093128  1
  Mo  Mo86  1  8.13551799  1.65582132  14.46033640  1
  Mo  Mo87  1  4.93822196  4.89176245  14.43948473  1
  Mo  Mo88  1  5.00848216  1.82034100  14.46619473  1
  Mo  Mo89  1  8.25051993  4.92079592  14.44762681  1
  Mo  Mo90  1  6.55667906  3.29743371  12.89785114  1
  Mo  Mo91  1  4.97017466  8.10203617  1.63126599  1
  Mo  Mo92  1  6.56217993  6.48473087  0.10816259  1
  Mo  Mo93  1  8.10074535  8.07648790  1.72861351  1
  Mo  Mo94  1  6.50185903  9.79698912  0.07830398  1
  Mo  Mo95  1  8.16507772  11.26466878  1.63172274  1
  Mo  Mo96  1  6.54579648  9.64966709  3.26772504  1
  Mo  Mo97  1  5.02910546  11.28472610  1.79464380  1
  Mo  Mo98  1  6.41068757  6.59822354  3.25287070  1
  Mo  Mo99  1  8.01947348  11.18275150  4.79527879  1
  Mo  Mo100  1  4.82636763  11.21253960  4.99388599  1
  Mo  Mo101  1  6.54722631  9.58770784  6.41904810  1
  Mo  Mo102  1  4.91903842  8.07641840  4.96873491  1
  Mo  Mo103  1  8.03067380  8.04986727  4.88543744  1
  Mo  Mo104  1  6.56638999  6.47440433  6.51101390  1
  Mo  Mo105  1  8.06912031  8.18325839  11.36584903  1
  Mo  Mo106  1  6.52147946  9.61402067  9.70628435  1
  Mo  Mo107  1  7.97980565  11.30706718  11.37061513  1
  Mo  Mo108  1  8.21210321  11.33606093  8.18369528  1
  Mo  Mo109  1  4.81629926  8.05616249  11.21244031  1
  Mo  Mo110  1  6.51163945  6.54662062  9.76091573  1
  Mo  Mo111  1  4.95510188  11.19307804  11.35899777  1
  Mo  Mo112  1  5.05412747  11.15951678  8.12441696  1
  Mo  Mo113  1  4.92155055  8.00239496  8.08492787  1
  Mo  Mo114  1  8.15223905  8.23742309  8.13828829  1
  Mo  Mo115  1  6.52337597  6.52881726  12.90341158  1
  Mo  Mo116  1  4.93713966  8.05180350  14.50511785  1
  Mo  Mo117  1  8.18668402  11.28820138  14.57204178  1
  Mo  Mo118  1  6.42126235  9.67479832  12.97788184  1
  Mo  Mo119  1  8.09727007  8.11260101  14.53629606  1
  Mo  Mo120  1  4.98105725  11.23815737  14.37603607  1
