# generated using pymatgen
data_Mo
_symmetry_space_group_name_H-M   'P 1'
_cell_length_a   9.50240465
_cell_length_b   9.50240465
_cell_length_c   9.50240465
_cell_angle_alpha   90.00000000
_cell_angle_beta   90.00000000
_cell_angle_gamma   90.00000000
_symmetry_Int_Tables_number   1
_chemical_formula_structural   Mo
_chemical_formula_sum   Mo54
_cell_volume   858.02622273
_cell_formula_units_Z   54
loop_
 _symmetry_equiv_pos_site_id
 _symmetry_equiv_pos_as_xyz
  1  'x, y, z'
loop_
 _atom_site_type_symbol
 _atom_site_label
 _atom_site_symmetry_multiplicity
 _atom_site_fract_x
 _atom_site_fract_y
 _atom_site_fract_z
 _atom_site_occupancy
  Mo  Mo0  1  -0.01206647  0.14317949  0.09685403  1
  Mo  Mo1  1  1.53743347  1.56881027  1.65832352  1
  Mo  Mo2  1  -0.10162112  -0.00410790  3.17167827  1
  Mo  Mo3  1  0.02918082  3.09736688  0.01743954  1
  Mo  Mo4  1  0.05846918  3.19082209  3.17580888  1
  Mo  Mo5  1  3.19092138  -0.06285707  0.04957068  1
  Mo  Mo6  1  3.14873150  -0.12828544  3.20647077  1
  Mo  Mo7  1  3.28323471  3.07293071  -0.04962052  1
  Mo  Mo8  1  3.22748131  3.15010175  3.17896642  1
  Mo  Mo9  1  4.73078754  1.53127726  1.73823507  1
  Mo  Mo10  1  6.32162115  -0.05733415  -0.11880389  1
  Mo  Mo11  1  7.86673995  1.59184640  1.47694376  1
  Mo  Mo12  1  6.30347027  0.00199838  3.25800419  1
  Mo  Mo13  1  6.47364969  3.23586170  0.05208579  1
  Mo  Mo14  1  6.38574500  3.18713829  3.18999795  1
  Mo  Mo15  1  1.50250195  1.65061833  4.77005819  1
  Mo  Mo16  1  -0.10156949  -0.03960279  6.42412201  1
  Mo  Mo17  1  1.61036467  1.59123078  7.78210202  1
  Mo  Mo18  1  -0.09103175  3.19280796  6.28909254  1
  Mo  Mo19  1  3.10708773  0.05346468  6.31723237  1
  Mo  Mo20  1  3.09201495  3.14028161  6.34057631  1
  Mo  Mo21  1  4.89022340  1.60694897  4.74901786  1
  Mo  Mo22  1  4.76080402  1.53833704  7.92365508  1
  Mo  Mo23  1  7.94885582  1.45160402  4.70655989  1
  Mo  Mo24  1  6.29523882  -0.02277052  6.44005864  1
  Mo  Mo25  1  7.86133837  1.63839528  7.93797323  1
  Mo  Mo26  1  6.36402948  3.17651387  6.19279754  1
  Mo  Mo27  1  1.67670278  4.67469655  1.53805902  1
  Mo  Mo28  1  0.04586206  6.36704801  0.02895791  1
  Mo  Mo29  1  1.51816057  7.88173329  1.57310968  1
  Mo  Mo30  1  0.06692126  6.41268338  3.17869833  1
  Mo  Mo31  1  3.10635296  6.43115200  0.00943299  1
  Mo  Mo32  1  3.17822172  6.46226071  3.20300542  1
  Mo  Mo33  1  4.95938144  4.60610448  1.54421523  1
  Mo  Mo34  1  4.79269715  7.93843991  1.54854443  1
  Mo  Mo35  1  7.85041607  4.77603567  1.66493647  1
  Mo  Mo36  1  6.38234916  6.32093602  -0.12861410  1
  Mo  Mo37  1  7.97874321  7.88037297  1.61552794  1
  Mo  Mo38  1  6.37238008  6.40184051  3.25883825  1
  Mo  Mo39  1  1.57792543  4.74604898  4.64675531  1
  Mo  Mo40  1  1.51869675  4.73252518  7.97690628  1
  Mo  Mo41  1  1.46920878  8.01304918  4.78127838  1
  Mo  Mo42  1  0.00297590  6.26564930  6.30184185  1
  Mo  Mo43  1  1.49393291  7.88959735  7.90884046  1
  Mo  Mo44  1  3.01655176  6.36850762  6.32538438  1
  Mo  Mo45  1  4.60248026  4.70530879  4.69571702  1
  Mo  Mo46  1  4.79452415  4.78949989  7.79346121  1
  Mo  Mo47  1  4.73709269  7.94340459  4.73207836  1
  Mo  Mo48  1  4.71739283  7.95322474  7.93046663  1
  Mo  Mo49  1  7.97403669  4.77525125  4.70759254  1
  Mo  Mo50  1  7.92814315  4.79669868  7.98204969  1
  Mo  Mo51  1  8.06746211  7.94367269  4.83673389  1
  Mo  Mo52  1  6.45119939  6.42381420  6.28344273  1
  Mo  Mo53  1  7.84065550  7.80795809  7.89161301  1
