# generated using pymatgen
data_Mo
_symmetry_space_group_name_H-M   'P 1'
_cell_length_a   9.50240465
_cell_length_b   9.50240465
_cell_length_c   9.50240465
_cell_angle_alpha   90.00000000
_cell_angle_beta   90.00000000
_cell_angle_gamma   90.00000000
_symmetry_Int_Tables_number   1
_chemical_formula_structural   Mo
_chemical_formula_sum   Mo54
_cell_volume   858.02622273
_cell_formula_units_Z   54
loop_
 _symmetry_equiv_pos_site_id
 _symmetry_equiv_pos_as_xyz
  1  'x, y, z'
loop_
 _atom_site_type_symbol
 _atom_site_label
 _atom_site_symmetry_multiplicity
 _atom_site_fract_x
 _atom_site_fract_y
 _atom_site_fract_z
 _atom_site_occupancy
  Mo  Mo0  1  0.03071491  -0.01764528  -0.00249395  1
  Mo  Mo1  1  1.45716446  1.51703855  1.57808430  1
  Mo  Mo2  1  -0.02238774  0.06326993  3.15450046  1
  Mo  Mo3  1  -0.03696773  3.13286437  -0.05763829  1
  Mo  Mo4  1  0.06156833  3.16807391  3.17873805  1
  Mo  Mo5  1  3.20344231  -0.01544086  -0.02513441  1
  Mo  Mo6  1  3.23141334  0.01438348  3.12519890  1
  Mo  Mo7  1  3.08143025  3.12666844  0.13074991  1
  Mo  Mo8  1  3.31616049  3.21463271  3.34613725  1
  Mo  Mo9  1  4.74883913  1.69371178  1.80573491  1
  Mo  Mo10  1  6.32144242  0.07232998  -0.07291413  1
  Mo  Mo11  1  7.92775591  1.65099564  1.65699298  1
  Mo  Mo12  1  6.32240557  -0.09066456  3.21335182  1
  Mo  Mo13  1  6.28311506  3.23883058  0.01962539  1
  Mo  Mo14  1  6.48971541  3.21100849  3.10882537  1
  Mo  Mo15  1  1.62866450  1.61845711  4.67438874  1
  Mo  Mo16  1  0.05785445  0.17388606  6.34291964  1
  Mo  Mo17  1  1.66485704  1.64744093  7.98252630  1
  Mo  Mo18  1  0.09548417  3.03189263  6.31725223  1
  Mo  Mo19  1  3.07268247  0.06878311  6.35479517  1
  Mo  Mo20  1  3.19676978  3.13322183  6.24591965  1
  Mo  Mo21  1  4.71263666  1.53015524  4.76508358  1
  Mo  Mo22  1  4.71397712  1.56709249  7.89968559  1
  Mo  Mo23  1  8.00852138  1.56856203  4.62466246  1
  Mo  Mo24  1  6.36149749  -0.02517740  6.31737138  1
  Mo  Mo25  1  7.85549990  1.60618441  7.86407888  1
  Mo  Mo26  1  6.26493439  3.15398413  6.16977133  1
  Mo  Mo27  1  1.49636560  4.69158640  1.58984067  1
  Mo  Mo28  1  -0.09719967  6.37997604  -0.04568075  1
  Mo  Mo29  1  1.60999728  7.94140879  1.56012207  1
  Mo  Mo30  1  0.15251012  6.40503776  3.15750906  1
  Mo  Mo31  1  3.19727618  6.28415765  0.13420334  1
  Mo  Mo32  1  3.22294359  6.41002231  3.20177418  1
  Mo  Mo33  1  4.59390128  4.73374650  1.54406628  1
  Mo  Mo34  1  4.76320693  7.86079226  1.54869337  1
  Mo  Mo35  1  8.05316382  4.76218420  1.61286687  1
  Mo  Mo36  1  6.37186375  6.41716152  0.00999589  1
  Mo  Mo37  1  7.93496463  7.94575785  1.46971518  1
  Mo  Mo38  1  6.32835326  6.24962331  3.13717372  1
  Mo  Mo39  1  1.53445466  4.66523386  4.87207251  1
  Mo  Mo40  1  1.47311102  4.76583821  7.87900272  1
  Mo  Mo41  1  1.55631912  7.86106035  4.69927173  1
  Mo  Mo42  1  0.00857512  6.47712497  6.34132101  1
  Mo  Mo43  1  1.49272153  8.01719965  7.84496484  1
  Mo  Mo44  1  3.03424589  6.23999182  6.28143700  1
  Mo  Mo45  1  4.76016854  4.70920110  4.74871005  1
  Mo  Mo46  1  4.64132394  4.78588560  8.01008030  1
  Mo  Mo47  1  4.95552885  7.82860125  4.81906955  1
  Mo  Mo48  1  4.70798972  7.86522075  8.01807344  1
  Mo  Mo49  1  7.93510364  4.84119218  4.72470084  1
  Mo  Mo50  1  7.99587137  4.63405565  7.83852068  1
  Mo  Mo51  1  7.90314101  7.90917806  4.80791887  1
  Mo  Mo52  1  6.32772771  6.19487277  6.46275718  1
  Mo  Mo53  1  7.80127563  7.87344227  7.81770873  1
