# generated using pymatgen
data_Mo
_symmetry_space_group_name_H-M   'P 1'
_cell_length_a   9.50240465
_cell_length_b   9.50240465
_cell_length_c   9.50240465
_cell_angle_alpha   90.00000000
_cell_angle_beta   90.00000000
_cell_angle_gamma   90.00000000
_symmetry_Int_Tables_number   1
_chemical_formula_structural   Mo
_chemical_formula_sum   Mo54
_cell_volume   858.02622273
_cell_formula_units_Z   54
loop_
 _symmetry_equiv_pos_site_id
 _symmetry_equiv_pos_as_xyz
  1  'x, y, z'
loop_
 _atom_site_type_symbol
 _atom_site_label
 _atom_site_symmetry_multiplicity
 _atom_site_fract_x
 _atom_site_fract_y
 _atom_site_fract_z
 _atom_site_occupancy
  Mo  Mo0  1  0.04168140  -0.07510792  0.17959743  1
  Mo  Mo1  1  1.53655968  1.62477218  1.48184887  1
  Mo  Mo2  1  0.02815959  -0.08407851  3.18003879  1
  Mo  Mo3  1  0.01623720  3.25227494  0.13181831  1
  Mo  Mo4  1  -0.00843245  3.26193622  3.12155482  1
  Mo  Mo5  1  3.09965064  0.07328737  0.15447613  1
  Mo  Mo6  1  3.11333330  -0.02562402  3.24247466  1
  Mo  Mo7  1  3.08033802  3.27543023  -0.11449554  1
  Mo  Mo8  1  3.25221537  3.19370160  3.09024752  1
  Mo  Mo9  1  4.76791345  1.49624645  1.54686637  1
  Mo  Mo10  1  6.35288873  0.01860763  0.06168888  1
  Mo  Mo11  1  7.97987516  1.57984180  1.56603005  1
  Mo  Mo12  1  6.36905374  -0.02215738  3.10649197  1
  Mo  Mo13  1  6.23973366  3.26402138  -0.12150468  1
  Mo  Mo14  1  6.35104186  3.17261163  3.11646105  1
  Mo  Mo15  1  1.64487915  1.78017671  4.71288489  1
  Mo  Mo16  1  -0.00524179  0.05648321  6.29444447  1
  Mo  Mo17  1  1.55691489  1.71189245  7.89836498  1
  Mo  Mo18  1  0.02601365  3.22265564  6.27771349  1
  Mo  Mo19  1  3.30240832  0.07951815  6.36374153  1
  Mo  Mo20  1  3.11879446  3.15598987  6.28120862  1
  Mo  Mo21  1  4.66598849  1.51095184  4.71766092  1
  Mo  Mo22  1  4.68855794  1.52740481  7.92763676  1
  Mo  Mo23  1  8.07185089  1.57352672  4.71702544  1
  Mo  Mo24  1  6.38186262  -0.07252013  6.38448397  1
  Mo  Mo25  1  7.82102514  1.61933089  8.03340438  1
  Mo  Mo26  1  6.42464827  3.11100983  6.48513797  1
  Mo  Mo27  1  1.53958814  4.73523590  1.57969286  1
  Mo  Mo28  1  -0.03967060  6.15366590  -0.03548120  1
  Mo  Mo29  1  1.64776860  7.87781119  1.55806669  1
  Mo  Mo30  1  0.01034779  6.36951049  3.10803102  1
  Mo  Mo31  1  3.26110215  6.37594472  -0.07234537  1
  Mo  Mo32  1  3.16868953  6.28688822  3.14933719  1
  Mo  Mo33  1  4.71748219  4.82882019  1.49484641  1
  Mo  Mo34  1  4.74873984  7.86252989  1.75885836  1
  Mo  Mo35  1  7.93457739  4.81518717  1.62453388  1
  Mo  Mo36  1  6.28777194  6.24238480  0.06018607  1
  Mo  Mo37  1  7.90957524  7.74586976  1.55020263  1
  Mo  Mo38  1  6.49501769  6.32645675  3.30965676  1
  Mo  Mo39  1  1.59555998  4.76970073  4.69609433  1
  Mo  Mo40  1  1.61288673  4.86172611  7.77998706  1
  Mo  Mo41  1  1.63645905  8.00074669  4.81282398  1
  Mo  Mo42  1  -0.08555560  6.34051674  6.33326830  1
  Mo  Mo43  1  1.55082818  7.85153809  7.84750676  1
  Mo  Mo44  1  3.13865319  6.38292506  6.29571543  1
  Mo  Mo45  1  4.72537604  4.77275898  4.71545660  1
  Mo  Mo46  1  4.66978151  4.61025495  7.84144985  1
  Mo  Mo47  1  4.76911490  8.01346621  4.73536498  1
  Mo  Mo48  1  4.71650911  7.76941229  8.04112943  1
  Mo  Mo49  1  7.93430929  4.81542547  4.71177280  1
  Mo  Mo50  1  7.91131288  4.67859879  7.93198582  1
  Mo  Mo51  1  7.99402451  7.87630193  4.69065304  1
  Mo  Mo52  1  6.22990358  6.26612591  6.51095433  1
  Mo  Mo53  1  7.80601194  7.89212934  7.93708951  1
