# generated using pymatgen
data_Mo
_symmetry_space_group_name_H-M   'P 1'
_cell_length_a   9.58283252
_cell_length_b   9.58283252
_cell_length_c   9.58283252
_cell_angle_alpha   90.00000000
_cell_angle_beta   90.00000000
_cell_angle_gamma   90.00000000
_symmetry_Int_Tables_number   1
_chemical_formula_structural   Mo
_chemical_formula_sum   Mo54
_cell_volume   879.99801873
_cell_formula_units_Z   54
loop_
 _symmetry_equiv_pos_site_id
 _symmetry_equiv_pos_as_xyz
  1  'x, y, z'
loop_
 _atom_site_type_symbol
 _atom_site_label
 _atom_site_symmetry_multiplicity
 _atom_site_fract_x
 _atom_site_fract_y
 _atom_site_fract_z
 _atom_site_occupancy
  Mo  Mo0  1  0.00810761  -0.06028893  0.00337027  1
  Mo  Mo1  1  1.62838647  1.44973729  1.66865006  1
  Mo  Mo2  1  0.02071465  -0.06148086  3.18470560  1
  Mo  Mo3  1  -0.07933356  3.18479496  0.15609959  1
  Mo  Mo4  1  0.10501100  3.07874932  3.12381872  1
  Mo  Mo5  1  3.27415927  0.11000945  -0.02014212  1
  Mo  Mo6  1  3.25938437  -0.13356787  3.27900480  1
  Mo  Mo7  1  3.25833186  3.32660619  0.03695671  1
  Mo  Mo8  1  3.25461827  3.08759638  3.17921466  1
  Mo  Mo9  1  4.85671178  1.65006228  1.51246111  1
  Mo  Mo10  1  6.43950260  -0.04614068  -0.11695504  1
  Mo  Mo11  1  8.06642946  1.61625279  1.56345834  1
  Mo  Mo12  1  6.34916521  0.09281010  3.16633627  1
  Mo  Mo13  1  6.36343372  3.23074807  0.04075727  1
  Mo  Mo14  1  6.31523657  3.24435131  3.12234917  1
  Mo  Mo15  1  1.72291405  1.55959582  4.77147809  1
  Mo  Mo16  1  -0.01843129  -0.14700230  6.53864733  1
  Mo  Mo17  1  1.64179112  1.54655856  8.15320220  1
  Mo  Mo18  1  0.08476870  3.12367970  6.39825601  1
  Mo  Mo19  1  3.24474848  0.00494661  6.49896958  1
  Mo  Mo20  1  3.12172362  3.27042583  6.36514157  1
  Mo  Mo21  1  4.79917110  1.68924357  4.83820344  1
  Mo  Mo22  1  4.75285060  1.66690249  7.99279327  1
  Mo  Mo23  1  8.06897137  1.55280413  4.83545301  1
  Mo  Mo24  1  6.37631210  0.08071662  6.32747948  1
  Mo  Mo25  1  8.11728768  1.62019474  7.88478161  1
  Mo  Mo26  1  6.44161755  3.29519960  6.34548142  1
  Mo  Mo27  1  1.58101346  4.86588652  1.75501570  1
  Mo  Mo28  1  -0.04464978  6.40790735  0.05945477  1
  Mo  Mo29  1  1.49042784  7.95177505  1.52808000  1
  Mo  Mo30  1  -0.07509134  6.36879557  3.07309951  1
  Mo  Mo31  1  3.20616296  6.54592556  0.01661541  1
  Mo  Mo32  1  3.06203819  6.34037772  3.18809151  1
  Mo  Mo33  1  4.72267525  4.77777331  1.58484620  1
  Mo  Mo34  1  4.79792000  8.06376838  1.63124613  1
  Mo  Mo35  1  7.80717367  4.73755937  1.59739692  1
  Mo  Mo36  1  6.28732511  6.56784960  -0.09599583  1
  Mo  Mo37  1  8.06135555  8.05004600  1.61653081  1
  Mo  Mo38  1  6.32176016  6.27948091  3.19212283  1
  Mo  Mo39  1  1.53914132  4.69085163  4.96154604  1
  Mo  Mo40  1  1.57141176  4.75701100  8.13113914  1
  Mo  Mo41  1  1.48846183  7.98288376  4.82603997  1
  Mo  Mo42  1  0.05582539  6.36744518  6.35315682  1
  Mo  Mo43  1  1.69622391  7.99252517  8.03155752  1
  Mo  Mo44  1  3.15738991  6.33282148  6.32520565  1
  Mo  Mo45  1  4.72749099  4.85295848  4.78710692  1
  Mo  Mo46  1  4.76617581  4.79262764  8.00802492  1
  Mo  Mo47  1  4.73374650  8.04329403  4.77005819  1
  Mo  Mo48  1  4.78695798  8.00190843  7.90853265  1
  Mo  Mo49  1  7.99040029  4.71189196  4.81231758  1
  Mo  Mo50  1  8.00281200  4.77165682  7.86767331  1
  Mo  Mo51  1  8.00599933  7.90139344  4.74914694  1
  Mo  Mo52  1  6.38363998  6.40960527  6.22440271  1
  Mo  Mo53  1  8.01631594  8.01419105  7.86136816  1
