# generated using pymatgen
data_Mo
_symmetry_space_group_name_H-M   'P 1'
_cell_length_a   9.58283252
_cell_length_b   9.58283252
_cell_length_c   9.58283252
_cell_angle_alpha   90.00000000
_cell_angle_beta   90.00000000
_cell_angle_gamma   90.00000000
_symmetry_Int_Tables_number   1
_chemical_formula_structural   Mo
_chemical_formula_sum   Mo54
_cell_volume   879.99801873
_cell_formula_units_Z   54
loop_
 _symmetry_equiv_pos_site_id
 _symmetry_equiv_pos_as_xyz
  1  'x, y, z'
loop_
 _atom_site_type_symbol
 _atom_site_label
 _atom_site_symmetry_multiplicity
 _atom_site_fract_x
 _atom_site_fract_y
 _atom_site_fract_z
 _atom_site_occupancy
  Mo  Mo0  1  -0.04376120  0.00646658  0.09153437  1
  Mo  Mo1  1  1.45875316  1.63094825  1.65693340  1
  Mo  Mo2  1  -0.06633503  0.02199216  3.15038970  1
  Mo  Mo3  1  -0.09796086  3.16445962  -0.01855928  1
  Mo  Mo4  1  -0.09716750  3.16728949  3.21223973  1
  Mo  Mo5  1  3.16006091  -0.02999463  0.01955559  1
  Mo  Mo6  1  3.30399702  -0.11752598  3.18901494  1
  Mo  Mo7  1  3.09307739  3.28772278  0.09437059  1
  Mo  Mo8  1  3.18497369  3.01989796  3.20675872  1
  Mo  Mo9  1  4.75706065  1.63923927  1.63380791  1
  Mo  Mo10  1  6.39003449  -0.04876521  0.04995008  1
  Mo  Mo11  1  7.89805717  1.63161352  1.62722474  1
  Mo  Mo12  1  6.45514135  -0.05235448  3.11640148  1
  Mo  Mo13  1  6.37660999  3.13084871  0.02745202  1
  Mo  Mo14  1  6.44597655  3.21591360  3.23089701  1
  Mo  Mo15  1  1.41875767  1.72807732  4.87042424  1
  Mo  Mo16  1  -0.05028589  -0.01989547  6.45758398  1
  Mo  Mo17  1  1.63098797  1.72629997  7.97993474  1
  Mo  Mo18  1  -0.11069755  3.03460335  6.30189150  1
  Mo  Mo19  1  3.12297472  -0.12585970  6.41571183  1
  Mo  Mo20  1  3.20145644  3.20399836  6.40952584  1
  Mo  Mo21  1  4.64168140  1.55841422  4.82261433  1
  Mo  Mo22  1  4.68484436  1.45981560  8.03211356  1
  Mo  Mo23  1  7.87392881  1.59379256  4.82992235  1
  Mo  Mo24  1  6.42443975  0.04291274  6.38423574  1
  Mo  Mo25  1  7.87449478  1.54519823  8.00173963  1
  Mo  Mo26  1  6.24940486  3.30218987  6.42537311  1
  Mo  Mo27  1  1.52300610  4.83465866  1.68463634  1
  Mo  Mo28  1  0.01975388  6.46230043  -0.06176335  1
  Mo  Mo29  1  1.61620314  8.04975805  1.57769705  1
  Mo  Mo30  1  0.02351701  6.41732039  3.20310472  1
  Mo  Mo31  1  3.22588268  6.43133073  -0.16866421  1
  Mo  Mo32  1  3.25927515  6.26555001  3.14374696  1
  Mo  Mo33  1  4.85708910  4.71581406  1.38439213  1
  Mo  Mo34  1  4.77688960  7.88367945  1.56560308  1
  Mo  Mo35  1  8.11473583  4.89295397  1.53175387  1
  Mo  Mo36  1  6.50112425  6.33581022  -0.03145365  1
  Mo  Mo37  1  8.13482294  7.93837040  1.60076297  1
  Mo  Mo38  1  6.34696089  6.36439686  3.16067653  1
  Mo  Mo39  1  1.75477739  4.81010333  4.68329538  1
  Mo  Mo40  1  1.66924582  4.75527336  7.85467577  1
  Mo  Mo41  1  1.69587638  8.03333487  4.73492809  1
  Mo  Mo42  1  -0.01074149  6.36347343  6.35520227  1
  Mo  Mo43  1  1.55573329  8.05729444  7.94740613  1
  Mo  Mo44  1  3.39643943  6.47424546  6.38188248  1
  Mo  Mo45  1  4.78221174  4.74681354  4.84019924  1
  Mo  Mo46  1  4.90103648  4.85681108  7.95259919  1
  Mo  Mo47  1  4.93624601  8.00438084  4.87856632  1
  Mo  Mo48  1  4.82120436  8.04396923  8.11158822  1
  Mo  Mo49  1  7.94950122  4.81885110  4.89451288  1
  Mo  Mo50  1  8.04992685  4.77942159  7.97609207  1
  Mo  Mo51  1  8.11393155  7.98200004  4.88577504  1
  Mo  Mo52  1  6.42681287  6.58101594  6.36653168  1
  Mo  Mo53  1  7.99174075  7.99750972  7.94093218  1
