# generated using pymatgen
data_Mo
_symmetry_space_group_name_H-M   'P 1'
_cell_length_a   9.58283252
_cell_length_b   9.58283252
_cell_length_c   9.58283252
_cell_angle_alpha   90.00000000
_cell_angle_beta   90.00000000
_cell_angle_gamma   90.00000000
_symmetry_Int_Tables_number   1
_chemical_formula_structural   Mo
_chemical_formula_sum   Mo54
_cell_volume   879.99801873
_cell_formula_units_Z   54
loop_
 _symmetry_equiv_pos_site_id
 _symmetry_equiv_pos_as_xyz
  1  'x, y, z'
loop_
 _atom_site_type_symbol
 _atom_site_label
 _atom_site_symmetry_multiplicity
 _atom_site_fract_x
 _atom_site_fract_y
 _atom_site_fract_z
 _atom_site_occupancy
  Mo  Mo0  1  -0.06784359  -0.04406345  0.03076257  1
  Mo  Mo1  1  1.63658813  1.48978243  1.50635455  1
  Mo  Mo2  1  0.02691196  0.15478394  3.24095546  1
  Mo  Mo3  1  0.07706629  3.22869270  0.01404509  1
  Mo  Mo4  1  0.03650125  3.22891114  3.24686344  1
  Mo  Mo5  1  3.27383160  0.02722374  0.07620929  1
  Mo  Mo6  1  3.21971655  -0.06793475  3.22637915  1
  Mo  Mo7  1  3.10666077  3.16972218  -0.04127122  1
  Mo  Mo8  1  3.13983479  3.12192221  3.09059505  1
  Mo  Mo9  1  4.84634552  1.70337306  1.59160810  1
  Mo  Mo10  1  6.25605754  -0.08169268  -0.07134429  1
  Mo  Mo11  1  8.10744767  1.65776747  1.54108747  1
  Mo  Mo12  1  6.50772728  0.12485981  3.06325950  1
  Mo  Mo13  1  6.49943626  3.22691534  -0.13758330  1
  Mo  Mo14  1  6.53037617  3.22224854  2.98033936  1
  Mo  Mo15  1  1.52493239  1.48557238  4.89450295  1
  Mo  Mo16  1  0.01210400  0.00019376  6.40636830  1
  Mo  Mo17  1  1.59069459  1.49141085  7.94967002  1
  Mo  Mo18  1  -0.00075388  3.22785863  6.41626788  1
  Mo  Mo19  1  3.14289303  0.03457545  6.56036286  1
  Mo  Mo20  1  3.19533002  3.24372576  6.43414074  1
  Mo  Mo21  1  4.76600701  1.61287680  4.73736078  1
  Mo  Mo22  1  4.91254461  1.63503915  7.95051402  1
  Mo  Mo23  1  8.05588447  1.62738361  4.72443275  1
  Mo  Mo24  1  6.54228148  0.03677043  6.32668513  1
  Mo  Mo25  1  8.10139076  1.61651095  7.93082408  1
  Mo  Mo26  1  6.24584022  3.18233248  6.32010196  1
  Mo  Mo27  1  1.46996342  4.77304693  1.67831133  1
  Mo  Mo28  1  0.01626738  6.47567528  0.03369034  1
  Mo  Mo29  1  1.60430776  7.91027029  1.66541308  1
  Mo  Mo30  1  -0.05566155  6.46184368  3.11231058  1
  Mo  Mo31  1  3.24725068  6.46180396  0.17275411  1
  Mo  Mo32  1  3.04494975  6.47766116  3.40299281  1
  Mo  Mo33  1  4.82705276  4.75371445  1.56818472  1
  Mo  Mo34  1  4.88782049  7.98495900  1.77391128  1
  Mo  Mo35  1  8.07859293  4.77279870  1.48435107  1
  Mo  Mo36  1  6.31533586  6.39768010  -0.16821937  1
  Mo  Mo37  1  7.96028452  7.96587475  1.63054115  1
  Mo  Mo38  1  6.48233789  6.35100215  3.28765328  1
  Mo  Mo39  1  1.72873266  4.82332925  4.88902194  1
  Mo  Mo40  1  1.52176493  4.74729015  7.93594764  1
  Mo  Mo41  1  1.57588991  7.90477935  4.85253152  1
  Mo  Mo42  1  -0.04924341  6.48837495  6.32746955  1
  Mo  Mo43  1  1.62125719  7.90723191  8.13401866  1
  Mo  Mo44  1  3.06543404  6.27480418  6.34113236  1
  Mo  Mo45  1  4.92940468  4.64259490  4.74028002  1
  Mo  Mo46  1  4.66514450  4.77149795  7.99439189  1
  Mo  Mo47  1  4.80651883  8.05778098  4.79655967  1
  Mo  Mo48  1  4.59934258  8.00914693  7.98963573  1
  Mo  Mo49  1  7.94735648  4.71729353  4.81272468  1
  Mo  Mo50  1  7.75884744  4.81020262  7.88504970  1
  Mo  Mo51  1  8.01057676  8.11412021  4.82548392  1
  Mo  Mo52  1  6.30830587  6.34093377  6.38191227  1
  Mo  Mo53  1  7.96006607  7.86122915  8.05620221  1
