# generated using pymatgen
data_Mo
_symmetry_space_group_name_H-M   'P 1'
_cell_length_a   9.65134516
_cell_length_b   9.65134516
_cell_length_c   9.65134516
_cell_angle_alpha   90.00000000
_cell_angle_beta   90.00000000
_cell_angle_gamma   90.00000000
_symmetry_Int_Tables_number   1
_chemical_formula_structural   Mo
_chemical_formula_sum   Mo54
_cell_volume   899.00797074
_cell_formula_units_Z   54
loop_
 _symmetry_equiv_pos_site_id
 _symmetry_equiv_pos_as_xyz
  1  'x, y, z'
loop_
 _atom_site_type_symbol
 _atom_site_label
 _atom_site_symmetry_multiplicity
 _atom_site_fract_x
 _atom_site_fract_y
 _atom_site_fract_z
 _atom_site_occupancy
  Mo  Mo0  1  -0.15688698  0.10184751  0.12910660  1
  Mo  Mo1  1  1.63925913  1.71602307  1.67126148  1
  Mo  Mo2  1  -0.03491692  0.01600932  3.18604606  1
  Mo  Mo3  1  0.07826069  3.39534720  0.05564964  1
  Mo  Mo4  1  0.16821143  3.12371942  3.09677112  1
  Mo  Mo5  1  3.09717822  0.03411105  -0.05146342  1
  Mo  Mo6  1  3.23987316  -0.00518428  3.33701216  1
  Mo  Mo7  1  3.28932141  3.27166700  -0.11913851  1
  Mo  Mo8  1  3.33005168  3.27271951  3.12507975  1
  Mo  Mo9  1  4.91273327  1.73658679  1.49755713  1
  Mo  Mo10  1  6.55806918  -0.05052936  0.07469367  1
  Mo  Mo11  1  8.15734274  1.63778958  1.65451064  1
  Mo  Mo12  1  6.43285985  -0.00314655  3.16527383  1
  Mo  Mo13  1  6.45164622  3.27729695  0.02277181  1
  Mo  Mo14  1  6.54183466  3.28093110  3.20580550  1
  Mo  Mo15  1  1.59586779  1.72238779  4.71278560  1
  Mo  Mo16  1  -0.02499609  0.00867033  6.48529684  1
  Mo  Mo17  1  1.50533182  1.54645926  8.15898109  1
  Mo  Mo18  1  -0.07709925  3.20980704  6.42045807  1
  Mo  Mo19  1  3.24888903  -0.07579732  6.39183171  1
  Mo  Mo20  1  3.38872431  3.09997830  6.34696089  1
  Mo  Mo21  1  4.71419557  1.50921420  4.86801140  1
  Mo  Mo22  1  4.87229096  1.48820366  8.10716965  1
  Mo  Mo23  1  7.90199913  1.40222527  4.80335136  1
  Mo  Mo24  1  6.37850650  -0.18442311  6.51243380  1
  Mo  Mo25  1  7.93316741  1.63701509  8.04939066  1
  Mo  Mo26  1  6.53220317  3.12447405  6.39013378  1
  Mo  Mo27  1  1.66209668  4.87616341  1.57790557  1
  Mo  Mo28  1  -0.06996957  6.52079433  -0.03037999  1
  Mo  Mo29  1  1.74971341  8.08318030  1.62237921  1
  Mo  Mo30  1  0.02737874  6.38851530  3.13563466  1
  Mo  Mo31  1  3.23181052  6.57342991  0.12887425  1
  Mo  Mo32  1  3.21356034  6.50819396  3.39021372  1
  Mo  Mo33  1  4.78969848  4.88924039  1.69302666  1
  Mo  Mo34  1  4.75318820  8.11785365  1.59473585  1
  Mo  Mo35  1  8.03967974  4.92994087  1.54969624  1
  Mo  Mo36  1  6.38152502  6.48063004  0.05542632  1
  Mo  Mo37  1  8.02143949  8.07231757  1.57993116  1
  Mo  Mo38  1  6.47725405  6.38353075  3.20551755  1
  Mo  Mo39  1  1.55767945  4.82258455  4.92336763  1
  Mo  Mo40  1  1.55258568  4.86796175  8.01111295  1
  Mo  Mo41  1  1.54647912  8.22942002  4.74342763  1
  Mo  Mo42  1  -0.12691022  6.24543311  6.38279598  1
  Mo  Mo43  1  1.61176471  7.97767084  7.85092246  1
  Mo  Mo44  1  3.09733709  6.51174868  6.50948478  1
  Mo  Mo45  1  4.82273349  4.70497119  4.92574074  1
  Mo  Mo46  1  4.78882470  4.82646693  8.27932502  1
  Mo  Mo47  1  4.84166879  7.95891426  4.85070451  1
  Mo  Mo48  1  4.80447338  8.06240806  7.97267637  1
  Mo  Mo49  1  8.06181230  4.80008460  4.72268518  1
  Mo  Mo50  1  8.11472590  4.83854104  7.90510702  1
  Mo  Mo51  1  8.03107098  7.92103373  4.84434972  1
  Mo  Mo52  1  6.42581000  6.38307400  6.47175318  1
  Mo  Mo53  1  8.07389634  7.88779021  7.96111858  1
