# generated using pymatgen
data_Mo
_symmetry_space_group_name_H-M   'P 1'
_cell_length_a   9.51142851
_cell_length_b   12.63346067
_cell_length_c   15.77831978
_cell_angle_alpha   90.00000000
_cell_angle_beta   90.00000000
_cell_angle_gamma   90.00000000
_symmetry_Int_Tables_number   1
_chemical_formula_structural   Mo
_chemical_formula_sum   Mo121
_cell_volume   1895.95853173
_cell_formula_units_Z   121
loop_
 _symmetry_equiv_pos_site_id
 _symmetry_equiv_pos_as_xyz
  1  'x, y, z'
loop_
 _atom_site_type_symbol
 _atom_site_label
 _atom_site_symmetry_multiplicity
 _atom_site_fract_x
 _atom_site_fract_y
 _atom_site_fract_z
 _atom_site_occupancy
  Mo  Mo0  1  4.72131493  1.51702862  1.67689143  1
  Mo  Mo1  1  1.62698643  4.96385959  1.62532823  1
  Mo  Mo2  1  1.70730509  0.75580359  0.84243931  1
  Mo  Mo3  1  3.14744068  0.11381537  3.14116532  1
  Mo  Mo4  1  3.11093040  3.19829890  0.13129205  1
  Mo  Mo5  1  3.47392821  3.27634373  3.35379280  1
  Mo  Mo6  1  1.38755960  2.42269615  2.42904102  1
  Mo  Mo7  1  3.20017555  3.12724435  6.36495291  1
  Mo  Mo8  1  1.57437071  4.88489133  4.71083944  1
  Mo  Mo9  1  1.65576174  1.62049263  4.89480084  1
  Mo  Mo10  1  1.67923476  1.58067586  7.86815985  1
  Mo  Mo11  1  1.57068692  1.61672940  11.01305861  1
  Mo  Mo12  1  1.55038136  4.77117028  7.92571046  1
  Mo  Mo13  1  0.01701814  3.14735132  9.54736482  1
  Mo  Mo14  1  1.58262202  4.70248885  11.06628002  1
  Mo  Mo15  1  4.73518625  4.83383452  11.03232158  1
  Mo  Mo16  1  3.11618303  3.11626247  9.50998075  1
  Mo  Mo17  1  4.75804366  4.76020826  7.94990833  1
  Mo  Mo18  1  4.78641186  4.74290137  14.27426005  1
  Mo  Mo19  1  3.13744181  3.17020872  12.62459495  1
  Mo  Mo20  1  1.50848936  1.56711235  14.06058007  1
  Mo  Mo21  1  1.55186084  4.69287722  14.30077146  1
  Mo  Mo22  1  0.06354587  6.26418969  12.69012877  1
  Mo  Mo23  1  3.14786764  6.28482291  12.69241253  1
  Mo  Mo24  1  1.62314377  7.99193934  1.55059981  1
  Mo  Mo25  1  1.56275335  10.92180772  1.54441381  1
  Mo  Mo26  1  3.17250240  6.43480601  3.23915825  1
  Mo  Mo27  1  3.22920902  9.52062504  3.17066547  1
  Mo  Mo28  1  3.07001147  9.55554662  6.28873508  1
  Mo  Mo29  1  3.13262606  6.36228191  6.28692794  1
  Mo  Mo30  1  0.04082042  9.46044314  6.31657703  1
  Mo  Mo31  1  1.61613363  11.14561566  4.67981017  1
  Mo  Mo32  1  3.21285535  12.69271041  6.41505650  1
  Mo  Mo33  1  4.74377516  11.03768344  4.74110416  1
  Mo  Mo34  1  1.54475141  7.98602144  4.74612842  1
  Mo  Mo35  1  0.02340610  6.43130094  6.33299027  1
  Mo  Mo36  1  4.81142394  7.95776246  4.73181027  1
  Mo  Mo37  1  1.61015615  11.13439548  7.94461598  1
  Mo  Mo38  1  4.76885674  11.05257749  7.95771281  1
  Mo  Mo39  1  1.57178908  7.89193075  7.87992615  1
  Mo  Mo40  1  -0.01777774  6.35364336  9.48470058  1
  Mo  Mo41  1  1.61401868  7.84652375  11.08137266  1
  Mo  Mo42  1  0.02612923  9.47981534  9.52536134  1
  Mo  Mo43  1  1.48381488  10.98942671  11.03321523  1
  Mo  Mo44  1  3.14721231  6.30124609  9.45850691  1
  Mo  Mo45  1  3.11603409  9.46725469  9.45129819  1
  Mo  Mo46  1  4.69971855  11.03520110  10.98346909  1
  Mo  Mo47  1  4.71819711  7.92200681  7.88221983  1
  Mo  Mo48  1  4.67794345  7.84306833  11.10272080  1
  Mo  Mo49  1  3.21089927  12.62380060  9.46446453  1
  Mo  Mo50  1  -0.06689167  12.60741714  9.51494544  1
  Mo  Mo51  1  3.15141243  12.59004075  12.58795558  1
  Mo  Mo52  1  4.76006925  7.90682480  14.18290987  1
  Mo  Mo53  1  1.52518063  7.86547892  14.23573411  1
  Mo  Mo54  1  -0.01956423  9.41080623  12.62767305  1
  Mo  Mo55  1  1.49687200  10.95338311  14.14249735  1
  Mo  Mo56  1  3.15739984  9.37216113  12.60751643  1
  Mo  Mo57  1  3.20393878  6.29515938  15.84677398  1
  Mo  Mo58  1  3.46230092  12.39552444  15.45406749  1
  Mo  Mo59  1  3.12588402  9.41575106  15.77071502  1
  Mo  Mo60  1  4.79741360  4.77178590  1.70511070  1
  Mo  Mo61  1  9.08694998  3.45683977  3.44163791  1
  Mo  Mo62  1  7.95579644  1.57558210  1.60680996  1
  Mo  Mo63  1  6.38758194  0.07059304  3.12835644  1
  Mo  Mo64  1  6.36593592  3.18982915  0.02604274  1
  Mo  Mo65  1  7.95093105  4.82211787  1.65581139  1
  Mo  Mo66  1  6.31479967  3.11024527  3.19515129  1
  Mo  Mo67  1  9.44956055  3.09670161  0.05363318  1
  Mo  Mo68  1  9.50010103  0.05207189  3.07275198  1
  Mo  Mo69  1  6.31289323  3.14575269  6.41728067  1
  Mo  Mo70  1  4.79297517  1.57912688  4.81366797  1
  Mo  Mo71  1  4.83425155  4.84724909  4.82030079  1
  Mo  Mo72  1  7.90499780  1.61065262  4.79878385  1
  Mo  Mo73  1  9.49225683  3.21883283  6.36344364  1
  Mo  Mo74  1  7.79533787  4.89239793  4.93155935  1
  Mo  Mo75  1  4.71086923  1.56384558  7.89401592  1
  Mo  Mo76  1  4.66139119  1.57580054  11.03768344  1
  Mo  Mo77  1  7.91526477  1.58446888  7.93897609  1
  Mo  Mo78  1  7.93770514  1.60593617  10.99081683  1
  Mo  Mo79  1  7.89623017  4.72434338  7.87678847  1
  Mo  Mo80  1  6.35359371  3.17487552  9.46995547  1
  Mo  Mo81  1  7.89937778  4.72613067  11.09974199  1
  Mo  Mo82  1  7.91350727  4.72489943  14.28607600  1
  Mo  Mo83  1  6.35654273  3.15708210  12.71346278  1
  Mo  Mo84  1  9.47017392  3.20691759  12.63392855  1
  Mo  Mo85  1  4.77903434  1.55602124  14.14805779  1
  Mo  Mo86  1  7.84081437  1.56532506  14.17427132  1
  Mo  Mo87  1  6.38456341  6.33276190  12.65964561  1
  Mo  Mo88  1  6.31870191  6.28288669  15.82075903  1
  Mo  Mo89  1  4.79256807  7.95585602  1.54500957  1
  Mo  Mo90  1  4.79690720  11.00878898  1.53659940  1
  Mo  Mo91  1  9.45314505  9.56012406  3.11620289  1
  Mo  Mo92  1  7.94654227  7.92676297  1.60178570  1
  Mo  Mo93  1  6.30398659  6.44664181  3.22208967  1
  Mo  Mo94  1  7.89699473  11.01712965  1.55031186  1
  Mo  Mo95  1  6.34337639  9.51074531  3.15951479  1
  Mo  Mo96  1  9.52385208  6.35664203  3.28091124  1
  Mo  Mo97  1  6.32422264  12.59222521  6.27730638  1
  Mo  Mo98  1  6.35220360  9.52801248  6.28043413  1
  Mo  Mo99  1  7.95038494  11.08862110  4.78328411  1
  Mo  Mo100  1  7.83618728  7.90714254  4.73166133  1
  Mo  Mo101  1  6.21716420  6.42569085  6.33083560  1
  Mo  Mo102  1  9.49141284  12.63134692  6.39789855  1
  Mo  Mo103  1  7.88227941  11.07174117  7.90877096  1
  Mo  Mo104  1  7.90629855  7.90815534  7.88595327  1
  Mo  Mo105  1  6.36904381  6.22768933  9.48581267  1
  Mo  Mo106  1  7.87291601  7.80967587  11.08186913  1
  Mo  Mo107  1  6.30077941  9.50132235  9.47883233  1
  Mo  Mo108  1  7.96169449  11.02358374  11.03937143  1
  Mo  Mo109  1  6.31616993  12.62300625  9.49719173  1
  Mo  Mo110  1  7.82725085  10.97890159  14.04667895  1
  Mo  Mo111  1  6.36344364  9.40624865  12.58924640  1
  Mo  Mo112  1  8.00623763  7.78887385  14.22342169  1
  Mo  Mo113  1  4.81979439  10.92031832  14.05343092  1
  Mo  Mo114  1  9.44939175  12.64365933  12.57087707  1
  Mo  Mo115  1  6.29689702  12.65031201  12.58924640  1
  Mo  Mo116  1  6.32628795  9.43512325  15.79722643  1
  Mo  Mo117  1  9.18009738  12.54069179  15.54929013  1
  Mo  Mo118  1  9.50098475  6.28805989  15.82691524  1
  Mo  Mo119  1  9.54625273  9.41467868  15.75294145  1
  Mo  Mo120  1  6.29465299  12.64653885  15.72454346  1
