# generated using pymatgen
data_Mo
_symmetry_space_group_name_H-M   'P 1'
_cell_length_a   9.65134516
_cell_length_b   9.65134516
_cell_length_c   9.65134516
_cell_angle_alpha   90.00000000
_cell_angle_beta   90.00000000
_cell_angle_gamma   90.00000000
_symmetry_Int_Tables_number   1
_chemical_formula_structural   Mo
_chemical_formula_sum   Mo54
_cell_volume   899.00797074
_cell_formula_units_Z   54
loop_
 _symmetry_equiv_pos_site_id
 _symmetry_equiv_pos_as_xyz
  1  'x, y, z'
loop_
 _atom_site_type_symbol
 _atom_site_label
 _atom_site_symmetry_multiplicity
 _atom_site_fract_x
 _atom_site_fract_y
 _atom_site_fract_z
 _atom_site_occupancy
  Mo  Mo0  1  0.02254374  0.00127500  0.01411837  1
  Mo  Mo1  1  1.65009207  1.71067114  1.73842372  1
  Mo  Mo2  1  0.04581907  -0.03822409  3.31945704  1
  Mo  Mo3  1  -0.05600908  3.16795475  0.02165347  1
  Mo  Mo4  1  -0.07762928  3.31529664  3.31643852  1
  Mo  Mo5  1  3.21145531  0.12087118  0.03629492  1
  Mo  Mo6  1  3.07262290  0.17213849  3.32949563  1
  Mo  Mo7  1  3.23953556  3.17969127  0.04434267  1
  Mo  Mo8  1  3.21841580  3.08524312  3.27221311  1
  Mo  Mo9  1  4.97638052  1.66888836  1.69287771  1
  Mo  Mo10  1  6.45653146  0.00351276  -0.18192984  1
  Mo  Mo11  1  8.08882018  1.46406537  1.63590300  1
  Mo  Mo12  1  6.35650302  0.01467054  3.33679372  1
  Mo  Mo13  1  6.43578902  3.08947303  -0.03715768  1
  Mo  Mo14  1  6.33104412  3.18331549  3.30857446  1
  Mo  Mo15  1  1.58907611  1.69296708  4.90437275  1
  Mo  Mo16  1  -0.12796572  0.07173958  6.42985125  1
  Mo  Mo17  1  1.65633764  1.62848577  8.07170195  1
  Mo  Mo18  1  0.13451115  3.28900367  6.35782362  1
  Mo  Mo19  1  3.19030576  -0.06174766  6.51126214  1
  Mo  Mo20  1  3.11675894  3.10228192  6.37515037  1
  Mo  Mo21  1  4.80261659  1.54673728  4.81777873  1
  Mo  Mo22  1  4.75027889  1.58933427  7.94135914  1
  Mo  Mo23  1  7.91986206  1.69768353  4.85914448  1
  Mo  Mo24  1  6.41108475  0.08240432  6.45047455  1
  Mo  Mo25  1  8.08604989  1.52269829  7.96433570  1
  Mo  Mo26  1  6.37015590  3.32602035  6.41865093  1
  Mo  Mo27  1  1.65853203  4.81455169  1.61703721  1
  Mo  Mo28  1  0.10336670  6.32085659  -0.02880341  1
  Mo  Mo29  1  1.59204499  8.14442464  1.64261526  1
  Mo  Mo30  1  0.06139338  6.59722067  3.22674654  1
  Mo  Mo31  1  3.13640915  6.34431968  0.11398219  1
  Mo  Mo32  1  3.21780018  6.41556289  3.14815560  1
  Mo  Mo33  1  4.85382234  4.75909617  1.64192020  1
  Mo  Mo34  1  4.76952201  8.05229004  1.57930561  1
  Mo  Mo35  1  8.12749507  4.72989390  1.68689031  1
  Mo  Mo36  1  6.47403694  6.45547895  -0.08428851  1
  Mo  Mo37  1  7.96513005  8.08430232  1.40594878  1
  Mo  Mo38  1  6.54592556  6.44430841  3.07323852  1
  Mo  Mo39  1  1.72959652  4.83031952  4.61687784  1
  Mo  Mo40  1  1.64060952  4.94149865  8.01282080  1
  Mo  Mo41  1  1.56831380  8.07738155  4.82541442  1
  Mo  Mo42  1  -0.09299002  6.40907902  6.47066095  1
  Mo  Mo43  1  1.64117550  8.08280298  8.09654523  1
  Mo  Mo44  1  3.28235100  6.44106151  6.36782250  1
  Mo  Mo45  1  4.70937983  4.78481323  4.79345178  1
  Mo  Mo46  1  4.96924130  4.76450768  8.07649783  1
  Mo  Mo47  1  4.75955292  7.94046550  4.75846069  1
  Mo  Mo48  1  4.92160020  7.95422760  7.95848730  1
  Mo  Mo49  1  8.00427162  4.91190914  4.74954412  1
  Mo  Mo50  1  8.12759436  4.77390086  8.16178117  1
  Mo  Mo51  1  7.90159203  8.07652762  4.76921420  1
  Mo  Mo52  1  6.43102292  6.39383744  6.48177192  1
  Mo  Mo53  1  8.18545278  7.98418450  8.04378057  1
