# generated using pymatgen
data_Mo
_symmetry_space_group_name_H-M   'P 1'
_cell_length_a   9.52000000
_cell_length_b   9.52000000
_cell_length_c   9.52000000
_cell_angle_alpha   90.00000000
_cell_angle_beta   90.00000000
_cell_angle_gamma   90.00000000
_symmetry_Int_Tables_number   1
_chemical_formula_structural   Mo
_chemical_formula_sum   Mo54
_cell_volume   862.80140800
_cell_formula_units_Z   54
loop_
 _symmetry_equiv_pos_site_id
 _symmetry_equiv_pos_as_xyz
  1  'x, y, z'
loop_
 _atom_site_type_symbol
 _atom_site_label
 _atom_site_symmetry_multiplicity
 _atom_site_fract_x
 _atom_site_fract_y
 _atom_site_fract_z
 _atom_site_occupancy
  Mo  Mo0  1  0.31561600  0.05170930  0.00134278  1
  Mo  Mo1  1  1.73602000  1.50157000  1.64158000  1
  Mo  Mo2  1  -0.16886500  -0.08355900  2.94916000  1
  Mo  Mo3  1  -0.07885490  3.19596000  0.07116340  1
  Mo  Mo4  1  0.07759580  3.10474000  3.05448000  1
  Mo  Mo5  1  3.23605000  -0.00753670  -0.01705180  1
  Mo  Mo6  1  3.15036000  -0.03375180  2.93781000  1
  Mo  Mo7  1  3.02416000  3.17893000  0.02666790  1
  Mo  Mo8  1  3.05834000  3.38622000  3.37620000  1
  Mo  Mo9  1  1.60074000  1.63460000  4.77073000  1
  Mo  Mo10  1  -0.12960300  -0.07424780  6.30796000  1
  Mo  Mo11  1  1.76603000  1.46501000  8.13124000  1
  Mo  Mo12  1  0.20579900  3.10387000  6.30090000  1
  Mo  Mo13  1  3.20786000  0.14601300  6.38221000  1
  Mo  Mo14  1  3.22445000  3.44368000  6.50867000  1
  Mo  Mo15  1  1.61414000  4.91788000  1.62102000  1
  Mo  Mo16  1  0.00114596  6.35200000  -0.01299560  1
  Mo  Mo17  1  1.52575000  7.77984000  1.52649000  1
  Mo  Mo18  1  -0.23799300  6.31780000  3.06758000  1
  Mo  Mo19  1  3.23129000  6.33123000  -0.18535900  1
  Mo  Mo20  1  3.25805000  6.28476000  2.99194000  1
  Mo  Mo21  1  1.39831000  4.79476000  4.73883000  1
  Mo  Mo22  1  1.39972000  4.81871000  7.66023000  1
  Mo  Mo23  1  1.48648000  8.34161000  4.78723000  1
  Mo  Mo24  1  0.08705410  6.47088000  6.33433000  1
  Mo  Mo25  1  1.57618000  7.81155000  7.86597000  1
  Mo  Mo26  1  3.35244000  6.33734000  6.30322000  1
  Mo  Mo27  1  4.70446000  1.54618000  1.76576000  1
  Mo  Mo28  1  6.20631000  -0.30615300  0.13561900  1
  Mo  Mo29  1  8.02139000  1.44070000  1.60278000  1
  Mo  Mo30  1  6.33992000  0.06391860  3.07195000  1
  Mo  Mo31  1  6.38788000  3.03743000  0.04628480  1
  Mo  Mo32  1  6.32431000  3.33455000  3.22927000  1
  Mo  Mo33  1  4.91845000  1.87180000  5.06366000  1
  Mo  Mo34  1  4.62587000  1.62482000  8.36422000  1
  Mo  Mo35  1  7.94416000  1.48062000  4.72488000  1
  Mo  Mo36  1  6.19946000  -0.00498643  6.36327000  1
  Mo  Mo37  1  7.83717000  1.57253000  7.95753000  1
  Mo  Mo38  1  6.45255000  3.22297000  6.37028000  1
  Mo  Mo39  1  4.97756000  4.78828000  1.60150000  1
  Mo  Mo40  1  4.93656000  7.84500000  1.54314000  1
  Mo  Mo41  1  8.09459000  4.83075000  1.63301000  1
  Mo  Mo42  1  6.54211000  6.32015000  0.17427100  1
  Mo  Mo43  1  7.95243000  8.02575000  1.38173000  1
  Mo  Mo44  1  6.54769000  6.27757000  3.09087000  1
  Mo  Mo45  1  4.60091000  4.99699000  4.74432000  1
  Mo  Mo46  1  4.95122000  4.73718000  8.13876000  1
  Mo  Mo47  1  4.64578000  7.97796000  4.50296000  1
  Mo  Mo48  1  4.68914000  7.87399000  7.87513000  1
  Mo  Mo49  1  7.72037000  4.61447000  4.83007000  1
  Mo  Mo50  1  7.89289000  4.71403000  8.12230000  1
  Mo  Mo51  1  7.78633000  8.08327000  4.96839000  1
  Mo  Mo52  1  6.47531000  6.26568000  6.19804000  1
  Mo  Mo53  1  7.95691000  7.84297000  8.00845000  1
