# generated using pymatgen
data_Mo
_symmetry_space_group_name_H-M   'P 1'
_cell_length_a   9.52000000
_cell_length_b   9.52000000
_cell_length_c   9.52000000
_cell_angle_alpha   90.00000000
_cell_angle_beta   90.00000000
_cell_angle_gamma   90.00000000
_symmetry_Int_Tables_number   1
_chemical_formula_structural   Mo
_chemical_formula_sum   Mo54
_cell_volume   862.80140800
_cell_formula_units_Z   54
loop_
 _symmetry_equiv_pos_site_id
 _symmetry_equiv_pos_as_xyz
  1  'x, y, z'
loop_
 _atom_site_type_symbol
 _atom_site_label
 _atom_site_symmetry_multiplicity
 _atom_site_fract_x
 _atom_site_fract_y
 _atom_site_fract_z
 _atom_site_occupancy
  Mo  Mo0  1  -0.13970500  0.00369869  0.05919550  1
  Mo  Mo1  1  1.56917000  1.73762000  1.68580000  1
  Mo  Mo2  1  0.03520310  -0.08987950  3.03120000  1
  Mo  Mo3  1  0.02602280  3.05232000  0.02624330  1
  Mo  Mo4  1  -0.07328260  3.19811000  3.26646000  1
  Mo  Mo5  1  3.19661000  0.13011800  0.04327860  1
  Mo  Mo6  1  3.46729000  -0.17894400  3.16102000  1
  Mo  Mo7  1  2.95302000  3.06687000  0.15069600  1
  Mo  Mo8  1  2.96593000  3.26789000  3.41548000  1
  Mo  Mo9  1  1.49787000  1.74067000  4.81249000  1
  Mo  Mo10  1  -0.04586430  0.00674125  6.27433000  1
  Mo  Mo11  1  1.44675000  1.45182000  7.86039000  1
  Mo  Mo12  1  -0.02719010  3.10108000  6.32325000  1
  Mo  Mo13  1  3.09370000  0.00954964  6.36308000  1
  Mo  Mo14  1  3.24540000  3.21610000  6.49727000  1
  Mo  Mo15  1  1.53155000  4.77149000  1.45788000  1
  Mo  Mo16  1  0.08379350  6.35245000  0.10150300  1
  Mo  Mo17  1  1.70364000  8.07027000  1.62178000  1
  Mo  Mo18  1  0.18649600  6.50709000  3.00741000  1
  Mo  Mo19  1  3.15740000  6.40886000  0.17919200  1
  Mo  Mo20  1  3.36414000  6.34175000  3.38069000  1
  Mo  Mo21  1  1.61793000  4.86049000  4.60227000  1
  Mo  Mo22  1  1.50768000  4.57375000  8.08083000  1
  Mo  Mo23  1  1.76127000  7.87179000  4.67370000  1
  Mo  Mo24  1  0.07864010  6.56063000  6.31871000  1
  Mo  Mo25  1  1.59463000  8.06798000  8.03136000  1
  Mo  Mo26  1  3.02719000  6.37223000  6.41215000  1
  Mo  Mo27  1  4.76563000  1.68934000  1.48355000  1
  Mo  Mo28  1  6.44149000  -0.10360200  0.09588100  1
  Mo  Mo29  1  7.91647000  1.58348000  1.51349000  1
  Mo  Mo30  1  6.44586000  -0.08349090  3.24283000  1
  Mo  Mo31  1  6.33610000  3.20074000  -0.07065270  1
  Mo  Mo32  1  6.32629000  3.30806000  3.04163000  1
  Mo  Mo33  1  4.36842000  1.51088000  4.82071000  1
  Mo  Mo34  1  4.92981000  1.71252000  7.88098000  1
  Mo  Mo35  1  7.86751000  1.45782000  4.50083000  1
  Mo  Mo36  1  6.47145000  0.03726960  6.43197000  1
  Mo  Mo37  1  7.84882000  1.64621000  7.79891000  1
  Mo  Mo38  1  6.45142000  3.14268000  6.12449000  1
  Mo  Mo39  1  4.67062000  4.87068000  1.61857000  1
  Mo  Mo40  1  4.90492000  7.97484000  1.54455000  1
  Mo  Mo41  1  7.85695000  4.87386000  1.47941000  1
  Mo  Mo42  1  6.45178000  6.12731000  -0.06661670  1
  Mo  Mo43  1  8.14749000  7.75598000  1.67356000  1
  Mo  Mo44  1  6.56452000  6.36953000  3.21899000  1
  Mo  Mo45  1  4.78501000  4.56939000  4.88916000  1
  Mo  Mo46  1  4.93542000  4.68082000  8.00330000  1
  Mo  Mo47  1  4.83577000  7.96511000  5.00064000  1
  Mo  Mo48  1  4.51322000  7.97701000  8.06801000  1
  Mo  Mo49  1  8.01573000  4.88827000  4.73094000  1
  Mo  Mo50  1  8.08931000  4.78780000  7.61385000  1
  Mo  Mo51  1  7.84565000  8.02168000  4.78375000  1
  Mo  Mo52  1  6.24871000  6.31563000  6.37034000  1
  Mo  Mo53  1  7.79036000  7.89762000  8.01929000  1
