# generated using pymatgen
data_Mo
_symmetry_space_group_name_H-M   'P 1'
_cell_length_a   9.52000000
_cell_length_b   9.52000000
_cell_length_c   9.52000000
_cell_angle_alpha   90.00000000
_cell_angle_beta   90.00000000
_cell_angle_gamma   90.00000000
_symmetry_Int_Tables_number   1
_chemical_formula_structural   Mo
_chemical_formula_sum   Mo54
_cell_volume   862.80140800
_cell_formula_units_Z   54
loop_
 _symmetry_equiv_pos_site_id
 _symmetry_equiv_pos_as_xyz
  1  'x, y, z'
loop_
 _atom_site_type_symbol
 _atom_site_label
 _atom_site_symmetry_multiplicity
 _atom_site_fract_x
 _atom_site_fract_y
 _atom_site_fract_z
 _atom_site_occupancy
  Mo  Mo0  1  0.15587300  -0.08509440  -0.17978700  1
  Mo  Mo1  1  1.71492000  1.54701000  1.39613000  1
  Mo  Mo2  1  -0.17529500  0.18063400  3.01837000  1
  Mo  Mo3  1  -0.10802900  3.11765000  0.20608900  1
  Mo  Mo4  1  -0.17690800  3.47361000  3.10831000  1
  Mo  Mo5  1  3.24793000  -0.05029680  -0.04521800  1
  Mo  Mo6  1  3.37157000  -0.08902890  3.04925000  1
  Mo  Mo7  1  3.26403000  3.10117000  0.00937826  1
  Mo  Mo8  1  3.17570000  3.11974000  3.20688000  1
  Mo  Mo9  1  1.41183000  1.39665000  4.93066000  1
  Mo  Mo10  1  -0.00598171  0.02310580  6.51755000  1
  Mo  Mo11  1  1.67938000  1.58745000  7.91196000  1
  Mo  Mo12  1  -0.07096230  3.23371000  6.49488000  1
  Mo  Mo13  1  3.15725000  -0.00575232  6.35642000  1
  Mo  Mo14  1  3.41933000  2.94095000  6.40125000  1
  Mo  Mo15  1  1.40100000  4.71761000  1.53381000  1
  Mo  Mo16  1  -0.11386000  6.43510000  -0.08433870  1
  Mo  Mo17  1  1.66988000  8.01066000  1.70158000  1
  Mo  Mo18  1  0.12357300  6.37092000  3.07415000  1
  Mo  Mo19  1  3.42572000  6.44350000  -0.07954200  1
  Mo  Mo20  1  3.40909000  6.33873000  3.11791000  1
  Mo  Mo21  1  1.66190000  4.65772000  4.98457000  1
  Mo  Mo22  1  1.53679000  4.69089000  8.04207000  1
  Mo  Mo23  1  1.60165000  7.91376000  4.69613000  1
  Mo  Mo24  1  -0.05274990  6.60105000  6.41190000  1
  Mo  Mo25  1  1.74628000  7.82411000  7.94693000  1
  Mo  Mo26  1  3.24638000  6.33469000  6.39017000  1
  Mo  Mo27  1  4.91460000  1.65238000  1.49776000  1
  Mo  Mo28  1  6.30769000  -0.04989390  -0.13358300  1
  Mo  Mo29  1  7.95066000  1.65180000  1.53118000  1
  Mo  Mo30  1  6.47470000  -0.01407600  3.07453000  1
  Mo  Mo31  1  6.50403000  3.20589000  0.11200300  1
  Mo  Mo32  1  6.26391000  3.18972000  3.31017000  1
  Mo  Mo33  1  4.74768000  1.57056000  4.61674000  1
  Mo  Mo34  1  4.77715000  1.64667000  8.03330000  1
  Mo  Mo35  1  7.87761000  1.57875000  4.62647000  1
  Mo  Mo36  1  6.32857000  -0.04878290  6.29975000  1
  Mo  Mo37  1  7.92742000  1.53890000  7.93214000  1
  Mo  Mo38  1  6.27442000  3.24603000  6.31284000  1
  Mo  Mo39  1  4.56297000  4.91729000  1.44257000  1
  Mo  Mo40  1  4.84153000  8.06937000  1.65759000  1
  Mo  Mo41  1  7.80894000  4.87559000  1.63417000  1
  Mo  Mo42  1  6.27879000  6.37035000  0.24085900  1
  Mo  Mo43  1  7.80356000  7.82482000  1.69887000  1
  Mo  Mo44  1  6.49273000  6.42808000  3.35210000  1
  Mo  Mo45  1  4.68370000  4.74264000  4.66349000  1
  Mo  Mo46  1  4.85355000  4.82419000  7.84424000  1
  Mo  Mo47  1  4.68046000  7.91005000  4.79244000  1
  Mo  Mo48  1  4.78190000  7.97155000  7.90977000  1
  Mo  Mo49  1  7.92421000  4.88516000  4.76344000  1
  Mo  Mo50  1  7.95862000  4.78344000  8.07049000  1
  Mo  Mo51  1  8.08359000  7.97900000  4.80720000  1
  Mo  Mo52  1  6.12285000  6.23223000  6.35016000  1
  Mo  Mo53  1  7.70786000  7.83809000  8.09186000  1
