# generated using pymatgen
data_Mo
_symmetry_space_group_name_H-M   'P 1'
_cell_length_a   9.64000000
_cell_length_b   9.64000000
_cell_length_c   9.64000000
_cell_angle_alpha   90.00000000
_cell_angle_beta   90.00000000
_cell_angle_gamma   90.00000000
_symmetry_Int_Tables_number   1
_chemical_formula_structural   Mo
_chemical_formula_sum   Mo54
_cell_volume   895.84134400
_cell_formula_units_Z   54
loop_
 _symmetry_equiv_pos_site_id
 _symmetry_equiv_pos_as_xyz
  1  'x, y, z'
loop_
 _atom_site_type_symbol
 _atom_site_label
 _atom_site_symmetry_multiplicity
 _atom_site_fract_x
 _atom_site_fract_y
 _atom_site_fract_z
 _atom_site_occupancy
  Mo  Mo0  1  -0.22927300  -0.16124300  -0.22160200  1
  Mo  Mo1  1  1.56765000  1.70142000  1.51107000  1
  Mo  Mo2  1  -0.07440620  -0.04805550  3.13428000  1
  Mo  Mo3  1  1.79114000  1.60352000  4.91160000  1
  Mo  Mo4  1  0.05157380  3.05646000  0.03202570  1
  Mo  Mo5  1  1.66961000  4.77210000  1.46378000  1
  Mo  Mo6  1  -0.02473950  3.32808000  3.13376000  1
  Mo  Mo7  1  1.66002000  4.74497000  4.81630000  1
  Mo  Mo8  1  3.14869000  -0.13363700  0.04969140  1
  Mo  Mo9  1  4.86512000  1.52359000  1.72461000  1
  Mo  Mo10  1  3.31093000  -0.15634200  3.05082000  1
  Mo  Mo11  1  4.84952000  1.57877000  4.84520000  1
  Mo  Mo12  1  3.06210000  3.06117000  0.07428710  1
  Mo  Mo13  1  4.65663000  4.73152000  1.65477000  1
  Mo  Mo14  1  3.29543000  3.24910000  3.13192000  1
  Mo  Mo15  1  4.85279000  4.72999000  4.75348000  1
  Mo  Mo16  1  0.09430510  0.02644530  6.23403000  1
  Mo  Mo17  1  1.63168000  1.77364000  7.99721000  1
  Mo  Mo18  1  0.00707717  3.06761000  6.42221000  1
  Mo  Mo19  1  1.45497000  4.89525000  8.06204000  1
  Mo  Mo20  1  3.22439000  -0.18198600  6.34873000  1
  Mo  Mo21  1  4.61974000  1.53375000  7.98083000  1
  Mo  Mo22  1  3.22843000  3.25521000  6.63187000  1
  Mo  Mo23  1  4.50462000  4.80962000  8.05776000  1
  Mo  Mo24  1  -0.05731620  6.56776000  -0.15537200  1
  Mo  Mo25  1  1.54964000  7.72938000  1.62325000  1
  Mo  Mo26  1  -0.08573400  6.49778000  3.22752000  1
  Mo  Mo27  1  1.42776000  7.94403000  4.67860000  1
  Mo  Mo28  1  3.08212000  6.49803000  -0.00069520  1
  Mo  Mo29  1  4.87310000  8.06090000  1.45625000  1
  Mo  Mo30  1  3.33830000  6.29712000  3.14945000  1
  Mo  Mo31  1  4.81370000  7.84292000  4.91472000  1
  Mo  Mo32  1  -0.04965710  6.38621000  6.37231000  1
  Mo  Mo33  1  1.76787000  8.04544000  7.74857000  1
  Mo  Mo34  1  3.15870000  6.24937000  6.40076000  1
  Mo  Mo35  1  4.92975000  8.17198000  7.91941000  1
  Mo  Mo36  1  6.39159000  -0.02672480  -0.11049200  1
  Mo  Mo37  1  7.86412000  1.59921000  1.53080000  1
  Mo  Mo38  1  6.36101000  -0.23869400  3.35031000  1
  Mo  Mo39  1  7.98222000  1.73735000  4.67012000  1
  Mo  Mo40  1  6.19419000  3.35601000  -0.13540800  1
  Mo  Mo41  1  8.02676000  4.63505000  1.46739000  1
  Mo  Mo42  1  6.53665000  3.34381000  3.28117000  1
  Mo  Mo43  1  8.08213000  4.81016000  4.66289000  1
  Mo  Mo44  1  6.27675000  0.01472250  6.53253000  1
  Mo  Mo45  1  7.96094000  1.56201000  7.98274000  1
  Mo  Mo46  1  6.45996000  3.14703000  6.52430000  1
  Mo  Mo47  1  7.85377000  4.78194000  7.94237000  1
  Mo  Mo48  1  6.17764000  6.57460000  -0.02966490  1
  Mo  Mo49  1  7.88758000  7.82946000  1.62907000  1
  Mo  Mo50  1  6.40568000  6.24691000  3.16998000  1
  Mo  Mo51  1  7.94457000  7.79302000  4.77312000  1
  Mo  Mo52  1  6.32935000  6.35192000  6.39553000  1
  Mo  Mo53  1  7.94889000  8.08035000  7.87779000  1
