# generated using pymatgen
data_Mo
_symmetry_space_group_name_H-M   'P 1'
_cell_length_a   9.64000000
_cell_length_b   9.64000000
_cell_length_c   9.64000000
_cell_angle_alpha   90.00000000
_cell_angle_beta   90.00000000
_cell_angle_gamma   90.00000000
_symmetry_Int_Tables_number   1
_chemical_formula_structural   Mo
_chemical_formula_sum   Mo54
_cell_volume   895.84134400
_cell_formula_units_Z   54
loop_
 _symmetry_equiv_pos_site_id
 _symmetry_equiv_pos_as_xyz
  1  'x, y, z'
loop_
 _atom_site_type_symbol
 _atom_site_label
 _atom_site_symmetry_multiplicity
 _atom_site_fract_x
 _atom_site_fract_y
 _atom_site_fract_z
 _atom_site_occupancy
  Mo  Mo0  1  0.02400000  -0.01891720  -0.00847122  1
  Mo  Mo1  1  1.50974000  1.58647000  1.60356000  1
  Mo  Mo2  1  -0.06720250  0.03631110  3.39160000  1
  Mo  Mo3  1  1.60019000  1.36962000  4.85893000  1
  Mo  Mo4  1  0.16737500  3.08707000  -0.15394900  1
  Mo  Mo5  1  1.65784000  4.83389000  1.73535000  1
  Mo  Mo6  1  0.17431500  2.87630000  3.49238000  1
  Mo  Mo7  1  1.84156000  4.47918000  4.94043000  1
  Mo  Mo8  1  3.06868000  0.04333660  0.05092660  1
  Mo  Mo9  1  4.81433000  1.60067000  1.49324000  1
  Mo  Mo10  1  3.39494000  -0.16717500  3.28702000  1
  Mo  Mo11  1  4.71499000  1.64315000  4.90904000  1
  Mo  Mo12  1  3.04950000  3.31753000  -0.00795863  1
  Mo  Mo13  1  4.68335000  4.79510000  1.64915000  1
  Mo  Mo14  1  3.18809000  3.19144000  3.17232000  1
  Mo  Mo15  1  4.74550000  4.85484000  4.36058000  1
  Mo  Mo16  1  -0.15504900  -0.06011890  6.34796000  1
  Mo  Mo17  1  1.47866000  1.54506000  8.11864000  1
  Mo  Mo18  1  -0.02230440  3.16333000  6.38336000  1
  Mo  Mo19  1  1.39280000  4.80531000  7.92962000  1
  Mo  Mo20  1  3.11469000  -0.21143700  6.20932000  1
  Mo  Mo21  1  4.61135000  1.82018000  8.08391000  1
  Mo  Mo22  1  3.24864000  3.21735000  6.47631000  1
  Mo  Mo23  1  4.81400000  5.01241000  7.86644000  1
  Mo  Mo24  1  -0.20693900  6.30305000  0.05192520  1
  Mo  Mo25  1  1.45237000  7.93004000  1.57961000  1
  Mo  Mo26  1  0.22732600  6.36182000  3.15799000  1
  Mo  Mo27  1  1.61364000  7.94589000  4.74533000  1
  Mo  Mo28  1  3.18485000  6.50555000  -0.10093500  1
  Mo  Mo29  1  4.82091000  7.80085000  1.49521000  1
  Mo  Mo30  1  3.08319000  6.36941000  3.03974000  1
  Mo  Mo31  1  4.68643000  8.04412000  4.75787000  1
  Mo  Mo32  1  0.04983160  6.54691000  6.50717000  1
  Mo  Mo33  1  1.50323000  8.07037000  7.85545000  1
  Mo  Mo34  1  3.15406000  6.47122000  6.38797000  1
  Mo  Mo35  1  4.73904000  8.10671000  7.97606000  1
  Mo  Mo36  1  6.27078000  0.13183600  -0.19720900  1
  Mo  Mo37  1  7.68962000  1.60430000  1.44141000  1
  Mo  Mo38  1  6.46012000  0.00912291  3.02832000  1
  Mo  Mo39  1  7.79704000  1.26734000  5.00469000  1
  Mo  Mo40  1  6.18444000  3.18091000  -0.04610870  1
  Mo  Mo41  1  8.14871000  4.78271000  1.59748000  1
  Mo  Mo42  1  6.77132000  3.38992000  2.85010000  1
  Mo  Mo43  1  8.44519000  4.77439000  4.80307000  1
  Mo  Mo44  1  6.22291000  0.10160000  6.53442000  1
  Mo  Mo45  1  7.98770000  1.51782000  8.15540000  1
  Mo  Mo46  1  6.26848000  2.99184000  6.09967000  1
  Mo  Mo47  1  7.96665000  4.57090000  7.90793000  1
  Mo  Mo48  1  6.24601000  6.30516000  -0.07189060  1
  Mo  Mo49  1  8.00931000  7.94650000  1.69386000  1
  Mo  Mo50  1  6.65925000  6.56119000  3.14485000  1
  Mo  Mo51  1  7.99799000  7.83718000  4.69364000  1
  Mo  Mo52  1  6.34504000  6.22754000  6.35524000  1
  Mo  Mo53  1  7.82151000  8.17288000  8.01204000  1
