# generated using pymatgen
data_Mo
_symmetry_space_group_name_H-M   'P 1'
_cell_length_a   9.64000000
_cell_length_b   9.64000000
_cell_length_c   9.64000000
_cell_angle_alpha   90.00000000
_cell_angle_beta   90.00000000
_cell_angle_gamma   90.00000000
_symmetry_Int_Tables_number   1
_chemical_formula_structural   Mo
_chemical_formula_sum   Mo54
_cell_volume   895.84134400
_cell_formula_units_Z   54
loop_
 _symmetry_equiv_pos_site_id
 _symmetry_equiv_pos_as_xyz
  1  'x, y, z'
loop_
 _atom_site_type_symbol
 _atom_site_label
 _atom_site_symmetry_multiplicity
 _atom_site_fract_x
 _atom_site_fract_y
 _atom_site_fract_z
 _atom_site_occupancy
  Mo  Mo0  1  0.13707300  -0.01139460  0.07379980  1
  Mo  Mo1  1  1.43686000  1.54186000  1.71327000  1
  Mo  Mo2  1  -0.10621800  -0.05773500  3.24699000  1
  Mo  Mo3  1  1.38846000  1.55644000  4.75580000  1
  Mo  Mo4  1  0.04281280  3.33315000  -0.19660000  1
  Mo  Mo5  1  1.61083000  4.81072000  1.50104000  1
  Mo  Mo6  1  -0.09846460  3.29210000  3.00179000  1
  Mo  Mo7  1  1.64307000  4.76632000  4.72043000  1
  Mo  Mo8  1  3.07954000  -0.06257950  -0.05297470  1
  Mo  Mo9  1  4.72392000  1.50221000  1.57461000  1
  Mo  Mo10  1  3.09630000  -0.10449200  3.32430000  1
  Mo  Mo11  1  4.82571000  1.48889000  4.89610000  1
  Mo  Mo12  1  3.32429000  3.12404000  0.08003730  1
  Mo  Mo13  1  4.83906000  4.71980000  1.67402000  1
  Mo  Mo14  1  3.37934000  3.08316000  3.17425000  1
  Mo  Mo15  1  4.65940000  4.81896000  4.67712000  1
  Mo  Mo16  1  -0.09325250  -0.20890800  6.38687000  1
  Mo  Mo17  1  1.56904000  1.47095000  8.14247000  1
  Mo  Mo18  1  -0.31665700  3.42160000  6.22375000  1
  Mo  Mo19  1  1.49933000  4.72860000  7.87502000  1
  Mo  Mo20  1  3.19740000  0.10129300  6.64373000  1
  Mo  Mo21  1  4.76845000  1.53153000  8.18951000  1
  Mo  Mo22  1  3.14723000  3.00878000  6.29982000  1
  Mo  Mo23  1  4.62976000  4.51819000  7.85886000  1
  Mo  Mo24  1  0.16357600  6.48543000  -0.14384500  1
  Mo  Mo25  1  1.63729000  7.98649000  1.81559000  1
  Mo  Mo26  1  -0.11270100  6.42805000  3.09445000  1
  Mo  Mo27  1  1.70159000  7.87632000  4.95547000  1
  Mo  Mo28  1  3.08216000  6.38221000  -0.27960000  1
  Mo  Mo29  1  4.71830000  8.00524000  1.57520000  1
  Mo  Mo30  1  3.16658000  6.24489000  3.13517000  1
  Mo  Mo31  1  4.91692000  7.87343000  4.78885000  1
  Mo  Mo32  1  0.03697480  6.37490000  6.05430000  1
  Mo  Mo33  1  1.60676000  7.98230000  8.03524000  1
  Mo  Mo34  1  3.35734000  6.31445000  6.38466000  1
  Mo  Mo35  1  4.80633000  8.08064000  7.85976000  1
  Mo  Mo36  1  6.53114000  -0.01172350  0.00297410  1
  Mo  Mo37  1  7.91063000  1.55430000  1.52714000  1
  Mo  Mo38  1  6.17644000  0.05049120  3.18411000  1
  Mo  Mo39  1  7.88521000  1.50617000  4.77924000  1
  Mo  Mo40  1  6.48971000  3.26883000  0.08592380  1
  Mo  Mo41  1  8.11770000  4.86779000  1.41707000  1
  Mo  Mo42  1  6.47656000  2.90600000  3.15973000  1
  Mo  Mo43  1  8.04559000  4.67161000  4.43621000  1
  Mo  Mo44  1  6.39693000  -0.12558300  6.54658000  1
  Mo  Mo45  1  7.97633000  1.60099000  8.02471000  1
  Mo  Mo46  1  6.04782000  3.23586000  6.50375000  1
  Mo  Mo47  1  7.90836000  4.83469000  8.13618000  1
  Mo  Mo48  1  6.22802000  6.56094000  -0.16226100  1
  Mo  Mo49  1  8.13249000  8.11368000  1.49824000  1
  Mo  Mo50  1  6.59285000  6.52487000  3.13147000  1
  Mo  Mo51  1  7.98013000  8.01279000  4.89566000  1
  Mo  Mo52  1  6.40141000  6.46067000  6.40489000  1
  Mo  Mo53  1  7.88826000  8.20982000  8.01913000  1
