# generated using pymatgen
data_Mo
_symmetry_space_group_name_H-M   'P 1'
_cell_length_a   9.64000000
_cell_length_b   9.64000000
_cell_length_c   9.64000000
_cell_angle_alpha   90.00000000
_cell_angle_beta   90.00000000
_cell_angle_gamma   90.00000000
_symmetry_Int_Tables_number   1
_chemical_formula_structural   Mo
_chemical_formula_sum   Mo54
_cell_volume   895.84134400
_cell_formula_units_Z   54
loop_
 _symmetry_equiv_pos_site_id
 _symmetry_equiv_pos_as_xyz
  1  'x, y, z'
loop_
 _atom_site_type_symbol
 _atom_site_label
 _atom_site_symmetry_multiplicity
 _atom_site_fract_x
 _atom_site_fract_y
 _atom_site_fract_z
 _atom_site_occupancy
  Mo  Mo0  1  -0.10505500  0.00197072  -0.03185770  1
  Mo  Mo1  1  1.82831000  1.48465000  1.67203000  1
  Mo  Mo2  1  0.06917810  -0.03650550  3.21114000  1
  Mo  Mo3  1  1.54092000  1.59976000  4.89620000  1
  Mo  Mo4  1  0.16960800  3.18897000  0.14223900  1
  Mo  Mo5  1  1.60407000  4.88318000  1.49355000  1
  Mo  Mo6  1  -0.03586770  3.34775000  3.35405000  1
  Mo  Mo7  1  1.63672000  5.00007000  4.81871000  1
  Mo  Mo8  1  3.10671000  -0.16251900  -0.16435400  1
  Mo  Mo9  1  4.94383000  1.71062000  1.61512000  1
  Mo  Mo10  1  3.20658000  0.10952900  3.05498000  1
  Mo  Mo11  1  4.69028000  1.58612000  4.85108000  1
  Mo  Mo12  1  3.24183000  3.13716000  -0.04360670  1
  Mo  Mo13  1  4.78412000  4.51007000  1.49828000  1
  Mo  Mo14  1  3.10931000  3.34152000  3.33068000  1
  Mo  Mo15  1  4.66820000  4.65080000  4.70168000  1
  Mo  Mo16  1  -0.09625660  -0.12796300  6.48891000  1
  Mo  Mo17  1  1.63079000  1.46549000  7.91777000  1
  Mo  Mo18  1  -0.04385560  3.13974000  6.48564000  1
  Mo  Mo19  1  1.56710000  5.02942000  8.13339000  1
  Mo  Mo20  1  3.12135000  -0.17533800  6.39749000  1
  Mo  Mo21  1  5.01510000  1.45192000  8.07327000  1
  Mo  Mo22  1  3.17730000  3.19476000  6.36353000  1
  Mo  Mo23  1  4.74820000  4.67172000  7.92112000  1
  Mo  Mo24  1  -0.03534450  6.40892000  -0.10005200  1
  Mo  Mo25  1  1.37820000  8.11460000  1.68365000  1
  Mo  Mo26  1  -0.19166600  6.35605000  3.20923000  1
  Mo  Mo27  1  1.65563000  7.96984000  4.85905000  1
  Mo  Mo28  1  3.19779000  6.55418000  -0.04309430  1
  Mo  Mo29  1  4.60615000  8.12212000  1.35752000  1
  Mo  Mo30  1  2.83387000  6.70504000  2.91757000  1
  Mo  Mo31  1  4.78320000  8.01068000  4.77157000  1
  Mo  Mo32  1  0.07190030  6.37014000  6.33173000  1
  Mo  Mo33  1  1.59336000  8.15171000  7.97251000  1
  Mo  Mo34  1  3.26501000  6.38111000  6.53104000  1
  Mo  Mo35  1  4.68487000  7.97548000  7.95983000  1
  Mo  Mo36  1  6.39826000  -0.14735600  -0.14283800  1
  Mo  Mo37  1  7.92393000  1.58494000  1.65338000  1
  Mo  Mo38  1  6.28213000  0.04641200  3.18098000  1
  Mo  Mo39  1  8.12361000  1.51612000  4.72743000  1
  Mo  Mo40  1  6.31059000  3.24210000  -0.24068600  1
  Mo  Mo41  1  7.99379000  5.01445000  1.35457000  1
  Mo  Mo42  1  6.41435000  3.23743000  3.18899000  1
  Mo  Mo43  1  8.11015000  4.63299000  4.67118000  1
  Mo  Mo44  1  6.48642000  -0.19920500  6.35236000  1
  Mo  Mo45  1  8.07341000  1.45231000  7.87432000  1
  Mo  Mo46  1  6.50975000  2.94063000  6.48459000  1
  Mo  Mo47  1  7.97840000  4.51840000  8.15126000  1
  Mo  Mo48  1  6.19165000  6.30210000  0.07613010  1
  Mo  Mo49  1  7.93242000  8.01383000  1.46481000  1
  Mo  Mo50  1  6.29017000  6.35619000  3.15949000  1
  Mo  Mo51  1  8.10412000  8.00120000  4.77888000  1
  Mo  Mo52  1  6.34956000  6.28628000  6.36957000  1
  Mo  Mo53  1  7.75585000  7.72840000  7.91398000  1
