# generated using pymatgen
data_Mo
_symmetry_space_group_name_H-M   'P 1'
_cell_length_a   9.64000000
_cell_length_b   9.64000000
_cell_length_c   9.64000000
_cell_angle_alpha   90.00000000
_cell_angle_beta   90.00000000
_cell_angle_gamma   90.00000000
_symmetry_Int_Tables_number   1
_chemical_formula_structural   Mo
_chemical_formula_sum   Mo54
_cell_volume   895.84134400
_cell_formula_units_Z   54
loop_
 _symmetry_equiv_pos_site_id
 _symmetry_equiv_pos_as_xyz
  1  'x, y, z'
loop_
 _atom_site_type_symbol
 _atom_site_label
 _atom_site_symmetry_multiplicity
 _atom_site_fract_x
 _atom_site_fract_y
 _atom_site_fract_z
 _atom_site_occupancy
  Mo  Mo0  1  -0.21299600  -0.24961500  0.06710360  1
  Mo  Mo1  1  1.56132000  1.43806000  1.56651000  1
  Mo  Mo2  1  -0.16420100  -0.04360330  3.28589000  1
  Mo  Mo3  1  1.59334000  1.42562000  4.65622000  1
  Mo  Mo4  1  0.05942150  2.87400000  0.08318690  1
  Mo  Mo5  1  1.74886000  4.68374000  1.25484000  1
  Mo  Mo6  1  0.43216300  3.60419000  2.91791000  1
  Mo  Mo7  1  1.69557000  4.92441000  4.74130000  1
  Mo  Mo8  1  2.98534000  0.05756090  -0.02783780  1
  Mo  Mo9  1  4.69714000  1.55454000  1.47509000  1
  Mo  Mo10  1  2.91573000  -0.06830850  3.17168000  1
  Mo  Mo11  1  4.54979000  1.42686000  4.73965000  1
  Mo  Mo12  1  3.39840000  3.08490000  -0.24435900  1
  Mo  Mo13  1  4.98386000  4.72640000  1.82850000  1
  Mo  Mo14  1  3.48535000  3.39744000  3.01546000  1
  Mo  Mo15  1  4.69431000  4.66281000  4.92239000  1
  Mo  Mo16  1  -0.24947200  -0.05842340  6.41515000  1
  Mo  Mo17  1  1.47251000  1.62415000  8.00855000  1
  Mo  Mo18  1  -0.22222100  3.19888000  6.38468000  1
  Mo  Mo19  1  1.41580000  4.94096000  7.93034000  1
  Mo  Mo20  1  3.09308000  -0.04568840  6.51486000  1
  Mo  Mo21  1  4.76868000  1.57087000  7.94418000  1
  Mo  Mo22  1  3.08513000  3.25495000  6.45343000  1
  Mo  Mo23  1  4.77642000  4.72562000  8.03960000  1
  Mo  Mo24  1  -0.08826230  6.38184000  -0.16218100  1
  Mo  Mo25  1  1.43365000  8.16298000  1.80913000  1
  Mo  Mo26  1  -0.04761410  6.16337000  3.09387000  1
  Mo  Mo27  1  1.70019000  8.03579000  4.90164000  1
  Mo  Mo28  1  3.29767000  6.40235000  -0.18446200  1
  Mo  Mo29  1  4.73314000  8.03013000  1.62312000  1
  Mo  Mo30  1  3.31002000  6.14058000  3.19482000  1
  Mo  Mo31  1  4.75374000  7.87004000  4.61579000  1
  Mo  Mo32  1  -0.15750200  6.48526000  6.30685000  1
  Mo  Mo33  1  1.45809000  8.01933000  8.00178000  1
  Mo  Mo34  1  3.25792000  6.29693000  6.32182000  1
  Mo  Mo35  1  4.75765000  8.03994000  7.88806000  1
  Mo  Mo36  1  6.25182000  0.02051420  -0.08422920  1
  Mo  Mo37  1  7.74897000  1.30319000  1.57465000  1
  Mo  Mo38  1  6.27013000  -0.09181090  3.28453000  1
  Mo  Mo39  1  8.03028000  1.61265000  4.60873000  1
  Mo  Mo40  1  6.52992000  2.86945000  0.10110900  1
  Mo  Mo41  1  8.00696000  4.87784000  1.50997000  1
  Mo  Mo42  1  6.57553000  3.32132000  3.33055000  1
  Mo  Mo43  1  8.18241000  4.75972000  4.83757000  1
  Mo  Mo44  1  6.36878000  0.21225800  6.26932000  1
  Mo  Mo45  1  7.83456000  1.57490000  8.10071000  1
  Mo  Mo46  1  6.38804000  3.14476000  6.35145000  1
  Mo  Mo47  1  8.07329000  4.74820000  7.88019000  1
  Mo  Mo48  1  6.42885000  6.25896000  -0.03182230  1
  Mo  Mo49  1  8.03604000  8.03417000  1.71880000  1
  Mo  Mo50  1  6.59110000  6.53834000  3.41509000  1
  Mo  Mo51  1  8.01043000  8.42156000  4.83393000  1
  Mo  Mo52  1  6.52457000  6.27350000  6.24675000  1
  Mo  Mo53  1  7.82629000  8.03158000  8.14815000  1
