# generated using pymatgen
data_Mo
_symmetry_space_group_name_H-M   'P 1'
_cell_length_a   9.64000000
_cell_length_b   9.64000000
_cell_length_c   9.64000000
_cell_angle_alpha   90.00000000
_cell_angle_beta   90.00000000
_cell_angle_gamma   90.00000000
_symmetry_Int_Tables_number   1
_chemical_formula_structural   Mo
_chemical_formula_sum   Mo54
_cell_volume   895.84134400
_cell_formula_units_Z   54
loop_
 _symmetry_equiv_pos_site_id
 _symmetry_equiv_pos_as_xyz
  1  'x, y, z'
loop_
 _atom_site_type_symbol
 _atom_site_label
 _atom_site_symmetry_multiplicity
 _atom_site_fract_x
 _atom_site_fract_y
 _atom_site_fract_z
 _atom_site_occupancy
  Mo  Mo0  1  2.99686000  3.12785000  3.25433000  1
  Mo  Mo1  1  1.63813000  1.50191000  1.36778000  1
  Mo  Mo2  1  3.37291000  0.07313530  2.99376000  1
  Mo  Mo3  1  0.17166100  3.04988000  3.51719000  1
  Mo  Mo4  1  1.57463000  4.68737000  1.73734000  1
  Mo  Mo5  1  0.09059410  3.18891000  0.05023810  1
  Mo  Mo6  1  4.81226000  4.85755000  1.57550000  1
  Mo  Mo7  1  1.63654000  1.39643000  4.62382000  1
  Mo  Mo8  1  3.42611000  3.49253000  6.29980000  1
  Mo  Mo9  1  1.66788000  1.91612000  7.78475000  1
  Mo  Mo10  1  4.13401000  1.71864000  8.00666000  1
  Mo  Mo11  1  3.08548000  0.08861790  6.49440000  1
  Mo  Mo12  1  3.31320000  3.47450000  9.49215000  1
  Mo  Mo13  1  4.58000000  1.66979000  5.00319000  1
  Mo  Mo14  1  1.33715000  4.57523000  4.85764000  1
  Mo  Mo15  1  3.06552000  6.45098000  3.10555000  1
  Mo  Mo16  1  1.59205000  7.88440000  1.46123000  1
  Mo  Mo17  1  1.38062000  7.68665000  4.63448000  1
  Mo  Mo18  1  3.23643000  6.25568000  0.11173700  1
  Mo  Mo19  1  0.12642200  9.36699000  3.21398000  1
  Mo  Mo20  1  4.47836000  7.91333000  7.92475000  1
  Mo  Mo21  1  1.51415000  7.73606000  7.84357000  1
  Mo  Mo22  1  3.28786000  6.18610000  6.05883000  1
  Mo  Mo23  1  0.05601990  9.70005000  9.58542000  1
  Mo  Mo24  1  1.62470000  5.04457000  7.84933000  1
  Mo  Mo25  1  2.93160000  9.24254000  9.54272000  1
  Mo  Mo26  1  0.16371500  9.20473000  6.44670000  1
  Mo  Mo27  1  4.64981000  8.12284000  4.78820000  1
  Mo  Mo28  1  6.69730000  2.95694000  3.18391000  1
  Mo  Mo29  1  8.37147000  1.50084000  1.61141000  1
  Mo  Mo30  1  4.84342000  1.50952000  1.73336000  1
  Mo  Mo31  1  8.23062000  4.62076000  1.79585000  1
  Mo  Mo32  1  6.58924000  0.01561610  3.15170000  1
  Mo  Mo33  1  8.00169000  1.53432000  4.78473000  1
  Mo  Mo34  1  6.57529000  3.21576000  6.63684000  1
  Mo  Mo35  1  8.30683000  1.51478000  8.20853000  1
  Mo  Mo36  1  7.94413000  4.60919000  8.06184000  1
  Mo  Mo37  1  6.41112000  2.91204000  9.66499000  1
  Mo  Mo38  1  9.55325000  3.44242000  6.28390000  1
  Mo  Mo39  1  6.34107000  0.25665400  6.43210000  1
  Mo  Mo40  1  5.30709000  4.67550000  4.72906000  1
  Mo  Mo41  1  6.27787000  6.57318000  3.10218000  1
  Mo  Mo42  1  7.95263000  7.96984000  1.60177000  1
  Mo  Mo43  1  4.74499000  8.27234000  1.64335000  1
  Mo  Mo44  1  9.41585000  6.26680000  3.14689000  1
  Mo  Mo45  1  6.48600000  6.38407000  0.06183260  1
  Mo  Mo46  1  7.74821000  8.04954000  4.54655000  1
  Mo  Mo47  1  9.59528000  5.97067000  0.16234900  1
  Mo  Mo48  1  6.33194000  6.47579000  6.46222000  1
  Mo  Mo49  1  7.89246000  8.50179000  7.95268000  1
  Mo  Mo50  1  4.96609000  4.88732000  7.91998000  1
  Mo  Mo51  1  9.01577000  6.51545000  6.28971000  1
  Mo  Mo52  1  7.78924000  4.95180000  4.90012000  1
  Mo  Mo53  1  5.87650000  9.65367000  9.15711000  1
