# generated using pymatgen
data_Mo
_symmetry_space_group_name_H-M   'P 1'
_cell_length_a   9.64000000
_cell_length_b   9.64000000
_cell_length_c   9.64000000
_cell_angle_alpha   90.00000000
_cell_angle_beta   90.00000000
_cell_angle_gamma   90.00000000
_symmetry_Int_Tables_number   1
_chemical_formula_structural   Mo
_chemical_formula_sum   Mo54
_cell_volume   895.84134400
_cell_formula_units_Z   54
loop_
 _symmetry_equiv_pos_site_id
 _symmetry_equiv_pos_as_xyz
  1  'x, y, z'
loop_
 _atom_site_type_symbol
 _atom_site_label
 _atom_site_symmetry_multiplicity
 _atom_site_fract_x
 _atom_site_fract_y
 _atom_site_fract_z
 _atom_site_occupancy
  Mo  Mo0  1  3.34481000  3.27031000  3.42423000  1
  Mo  Mo1  1  1.70493000  1.55326000  1.43423000  1
  Mo  Mo2  1  4.56950000  4.47931000  1.72911000  1
  Mo  Mo3  1  1.37923000  4.79747000  1.39573000  1
  Mo  Mo4  1  3.17704000  0.24873400  3.10563000  1
  Mo  Mo5  1  1.79133000  1.35140000  4.48980000  1
  Mo  Mo6  1  -0.21376700  0.07359810  0.10286200  1
  Mo  Mo7  1  3.09455000  2.96566000  6.52661000  1
  Mo  Mo8  1  1.49274000  1.45027000  8.02994000  1
  Mo  Mo9  1  2.91497000  3.03414000  9.79050000  1
  Mo  Mo10  1  4.76856000  4.79657000  8.08675000  1
  Mo  Mo11  1  1.73480000  4.85653000  8.03340000  1
  Mo  Mo12  1  1.58067000  4.54083000  4.72888000  1
  Mo  Mo13  1  2.88638000  -0.16602900  6.55807000  1
  Mo  Mo14  1  3.45890000  6.20748000  3.19394000  1
  Mo  Mo15  1  1.65744000  7.63910000  1.45363000  1
  Mo  Mo16  1  4.82378000  7.98693000  4.86405000  1
  Mo  Mo17  1  1.53049000  7.86083000  4.64549000  1
  Mo  Mo18  1  -0.03854280  6.17663000  3.07832000  1
  Mo  Mo19  1  4.87751000  4.68611000  4.69706000  1
  Mo  Mo20  1  0.02341930  6.17898000  6.21683000  1
  Mo  Mo21  1  1.44553000  8.01397000  7.81180000  1
  Mo  Mo22  1  2.98473000  6.54360000  6.53219000  1
  Mo  Mo23  1  4.61328000  8.16949000  8.06469000  1
  Mo  Mo24  1  3.17538000  9.56746000  9.81238000  1
  Mo  Mo25  1  3.32385000  6.47618000  9.71547000  1
  Mo  Mo26  1  6.31322000  3.14156000  3.21352000  1
  Mo  Mo27  1  7.88354000  1.62847000  1.70898000  1
  Mo  Mo28  1  9.38798000  0.14509900  3.28576000  1
  Mo  Mo29  1  9.39762000  2.91550000  0.02290800  1
  Mo  Mo30  1  4.87058000  1.63324000  1.58430000  1
  Mo  Mo31  1  8.22263000  1.86461000  4.67339000  1
  Mo  Mo32  1  9.55955000  3.32669000  3.32850000  1
  Mo  Mo33  1  7.90049000  4.55200000  1.22543000  1
  Mo  Mo34  1  8.17089000  4.77727000  4.66201000  1
  Mo  Mo35  1  5.13157000  1.62381000  4.90776000  1
  Mo  Mo36  1  6.31182000  3.27540000  6.48460000  1
  Mo  Mo37  1  8.42567000  1.80934000  7.87725000  1
  Mo  Mo38  1  6.46821000  2.87285000  9.43855000  1
  Mo  Mo39  1  8.06617000  4.65168000  7.97957000  1
  Mo  Mo40  1  9.64891000  3.49566000  6.09055000  1
  Mo  Mo41  1  4.84979000  1.57722000  8.19712000  1
  Mo  Mo42  1  6.44390000  6.11368000  3.16013000  1
  Mo  Mo43  1  7.84269000  8.16859000  1.61579000  1
  Mo  Mo44  1  4.80882000  7.98365000  1.85693000  1
  Mo  Mo45  1  7.92831000  7.84890000  4.81698000  1
  Mo  Mo46  1  9.36726000  6.67473000  -0.08759960  1
  Mo  Mo47  1  6.52816000  9.57486000  3.18123000  1
  Mo  Mo48  1  6.37849000  6.76331000  -0.24790500  1
  Mo  Mo49  1  6.32704000  6.57196000  6.41377000  1
  Mo  Mo50  1  8.01480000  8.31231000  7.55422000  1
  Mo  Mo51  1  6.44168000  9.77077000  6.52867000  1
  Mo  Mo52  1  9.55155000  9.36901000  6.28391000  1
  Mo  Mo53  1  6.14715000  9.64902000  9.57209000  1
