# generated using pymatgen
data_Mo
_symmetry_space_group_name_H-M   'P 1'
_cell_length_a   9.64000000
_cell_length_b   9.64000000
_cell_length_c   9.64000000
_cell_angle_alpha   90.00000000
_cell_angle_beta   90.00000000
_cell_angle_gamma   90.00000000
_symmetry_Int_Tables_number   1
_chemical_formula_structural   Mo
_chemical_formula_sum   Mo54
_cell_volume   895.84134400
_cell_formula_units_Z   54
loop_
 _symmetry_equiv_pos_site_id
 _symmetry_equiv_pos_as_xyz
  1  'x, y, z'
loop_
 _atom_site_type_symbol
 _atom_site_label
 _atom_site_symmetry_multiplicity
 _atom_site_fract_x
 _atom_site_fract_y
 _atom_site_fract_z
 _atom_site_occupancy
  Mo  Mo0  1  3.30560000  3.20987000  3.20915000  1
  Mo  Mo1  1  1.61596000  1.51880000  1.63528000  1
  Mo  Mo2  1  4.52367000  1.40699000  1.64657000  1
  Mo  Mo3  1  1.77754000  4.63753000  1.64708000  1
  Mo  Mo4  1  0.07583630  3.23131000  3.23700000  1
  Mo  Mo5  1  3.20670000  3.02701000  -0.22000100  1
  Mo  Mo6  1  -0.01185670  3.02820000  -0.21045700  1
  Mo  Mo7  1  2.98001000  3.24430000  6.28351000  1
  Mo  Mo8  1  1.36363000  1.67859000  7.95836000  1
  Mo  Mo9  1  -0.28030600  3.48973000  6.59599000  1
  Mo  Mo10  1  4.58352000  1.88783000  7.91371000  1
  Mo  Mo11  1  1.65685000  1.50569000  4.97928000  1
  Mo  Mo12  1  2.88070000  6.32050000  3.06329000  1
  Mo  Mo13  1  1.79387000  8.13847000  1.46342000  1
  Mo  Mo14  1  3.35923000  9.53894000  3.08872000  1
  Mo  Mo15  1  0.10551000  9.67140000  3.29123000  1
  Mo  Mo16  1  1.76352000  8.03504000  4.73557000  1
  Mo  Mo17  1  4.77398000  7.94921000  4.67918000  1
  Mo  Mo18  1  1.80693000  4.81767000  4.97517000  1
  Mo  Mo19  1  3.44192000  6.31122000  9.60884000  1
  Mo  Mo20  1  1.55146000  7.94340000  7.98604000  1
  Mo  Mo21  1  3.45748000  6.28560000  6.32543000  1
  Mo  Mo22  1  3.39062000  9.72981000  6.24232000  1
  Mo  Mo23  1  0.20487200  6.31198000  6.45426000  1
  Mo  Mo24  1  2.09814000  4.61895000  7.97608000  1
  Mo  Mo25  1  2.97085000  9.78454000  9.36017000  1
  Mo  Mo26  1  6.58235000  3.18950000  3.00708000  1
  Mo  Mo27  1  8.12354000  1.85976000  1.63100000  1
  Mo  Mo28  1  4.78067000  4.59527000  1.68842000  1
  Mo  Mo29  1  7.91246000  4.81822000  1.68749000  1
  Mo  Mo30  1  9.30943000  0.23189900  -0.00307983  1
  Mo  Mo31  1  6.38346000  -0.08840980  3.25997000  1
  Mo  Mo32  1  8.15498000  1.43944000  4.97563000  1
  Mo  Mo33  1  7.78541000  4.65081000  4.81205000  1
  Mo  Mo34  1  6.25796000  3.12139000  6.15539000  1
  Mo  Mo35  1  7.72908000  1.25269000  8.11374000  1
  Mo  Mo36  1  6.17084000  2.87150000  9.49773000  1
  Mo  Mo37  1  4.98394000  4.77880000  7.72986000  1
  Mo  Mo38  1  7.91511000  4.65546000  8.29199000  1
  Mo  Mo39  1  4.73706000  1.59004000  4.78733000  1
  Mo  Mo40  1  6.23163000  6.45870000  3.18755000  1
  Mo  Mo41  1  8.04812000  7.97081000  1.70798000  1
  Mo  Mo42  1  4.57648000  7.95677000  1.46349000  1
  Mo  Mo43  1  9.74607000  6.64671000  0.08710350  1
  Mo  Mo44  1  9.49557000  6.44955000  3.23231000  1
  Mo  Mo45  1  6.11586000  9.50257000  -0.12761500  1
  Mo  Mo46  1  4.85739000  5.05746000  4.78178000  1
  Mo  Mo47  1  6.19969000  6.53504000  6.31690000  1
  Mo  Mo48  1  7.65496000  7.89250000  8.18815000  1
  Mo  Mo49  1  9.43742000  9.42290000  6.42270000  1
  Mo  Mo50  1  4.77386000  8.20356000  7.71715000  1
  Mo  Mo51  1  6.35704000  6.33596000  9.51583000  1
  Mo  Mo52  1  6.57759000  9.49750000  6.42369000  1
  Mo  Mo53  1  7.91580000  7.91102000  4.73317000  1
