# generated using pymatgen
data_Mo
_symmetry_space_group_name_H-M   'P 1'
_cell_length_a   9.54506170
_cell_length_b   12.74022592
_cell_length_c   15.92329741
_cell_angle_alpha   90.00000000
_cell_angle_beta   90.00000000
_cell_angle_gamma   90.00000000
_symmetry_Int_Tables_number   1
_chemical_formula_structural   Mo
_chemical_formula_sum   Mo121
_cell_volume   1936.37236512
_cell_formula_units_Z   121
loop_
 _symmetry_equiv_pos_site_id
 _symmetry_equiv_pos_as_xyz
  1  'x, y, z'
loop_
 _atom_site_type_symbol
 _atom_site_label
 _atom_site_symmetry_multiplicity
 _atom_site_fract_x
 _atom_site_fract_y
 _atom_site_fract_z
 _atom_site_occupancy
  Mo  Mo0  1  4.77672080  1.57118339  1.36922005  1
  Mo  Mo1  1  1.52742466  4.82837337  1.57713108  1
  Mo  Mo2  1  2.01059761  0.88949657  0.84489285  1
  Mo  Mo3  1  3.17381308  -0.15720770  3.13848439  1
  Mo  Mo4  1  3.19435694  3.13223882  -0.08155198  1
  Mo  Mo5  1  3.28244036  3.36130933  3.20473313  1
  Mo  Mo6  1  1.09610287  2.32376986  2.33056155  1
  Mo  Mo7  1  3.16440004  3.22347978  6.36495291  1
  Mo  Mo8  1  1.58739804  4.66476718  4.83031952  1
  Mo  Mo9  1  1.54763093  1.45596301  4.82560307  1
  Mo  Mo10  1  1.48453973  1.56977342  7.97430478  1
  Mo  Mo11  1  1.52494232  1.50648363  11.08713169  1
  Mo  Mo12  1  1.57073657  4.71841555  7.98934778  1
  Mo  Mo13  1  -0.12050876  3.12039308  9.47467192  1
  Mo  Mo14  1  1.48720080  4.75622658  11.11701909  1
  Mo  Mo15  1  4.76473605  4.60393987  11.15504856  1
  Mo  Mo16  1  3.15122377  3.22425427  9.52629470  1
  Mo  Mo17  1  4.75675284  4.78192379  7.99152231  1
  Mo  Mo18  1  4.71768078  4.66191745  14.24020232  1
  Mo  Mo19  1  3.14528601  3.04386745  12.67136227  1
  Mo  Mo20  1  1.55993341  1.53367024  14.19959121  1
  Mo  Mo21  1  1.59506352  4.71986524  14.22292522  1
  Mo  Mo22  1  -0.09677886  6.39030258  12.63154550  1
  Mo  Mo23  1  3.20054294  6.25300922  12.63809889  1
  Mo  Mo24  1  1.57446008  7.88579440  1.54670750  1
  Mo  Mo25  1  1.55919864  10.98624932  1.54511880  1
  Mo  Mo26  1  3.18957099  6.35171706  3.15546361  1
  Mo  Mo27  1  3.15666506  9.49834353  3.15187911  1
  Mo  Mo28  1  3.23305169  9.47254704  6.36870621  1
  Mo  Mo29  1  3.16667387  6.30753138  6.47022406  1
  Mo  Mo30  1  -0.02324872  9.60115221  6.31670611  1
  Mo  Mo31  1  1.49307898  11.06002452  4.71521830  1
  Mo  Mo32  1  3.12718477  12.64395721  6.25412131  1
  Mo  Mo33  1  4.77255046  11.15683585  4.73648700  1
  Mo  Mo34  1  1.58799381  7.93902574  4.76842978  1
  Mo  Mo35  1  -0.01526412  6.32240557  6.37734476  1
  Mo  Mo36  1  4.66507499  7.96012565  4.85031727  1
  Mo  Mo37  1  1.54984518  11.05317325  7.84296904  1
  Mo  Mo38  1  4.71508921  11.15395633  7.86457534  1
  Mo  Mo39  1  1.57169971  7.89554504  7.94176625  1
  Mo  Mo40  1  -0.03642658  6.31079814  9.54663998  1
  Mo  Mo41  1  1.51497324  7.94684015  11.05168385  1
  Mo  Mo42  1  -0.06737245  9.49809530  9.44823002  1
  Mo  Mo43  1  1.62121747  11.11056500  11.02269010  1
  Mo  Mo44  1  3.14898966  6.30527741  9.60606724  1
  Mo  Mo45  1  3.15098547  9.52008885  9.49604985  1
  Mo  Mo46  1  4.72580300  11.02973995  11.05208102  1
  Mo  Mo47  1  4.74699227  7.93898602  7.96507047  1
  Mo  Mo48  1  4.76235300  7.86293700  11.01276073  1
  Mo  Mo49  1  3.11371062  12.77790438  9.47252718  1
  Mo  Mo50  1  0.02714590  12.66699334  9.44287809  1
  Mo  Mo51  1  3.12165411  12.63660948  12.60900584  1
  Mo  Mo52  1  4.72210928  7.82860125  14.26502574  1
  Mo  Mo53  1  1.65382551  7.89459182  14.19552017  1
  Mo  Mo54  1  0.00745091  9.51070560  12.61943167  1
  Mo  Mo55  1  1.63046171  11.11145864  14.24139385  1
  Mo  Mo56  1  3.13557509  9.49947548  12.59321814  1
  Mo  Mo57  1  3.12309387  6.35643351  15.80288617  1
  Mo  Mo58  1  3.55496178  12.40088630  15.58702172  1
  Mo  Mo59  1  3.21534763  9.52169741  15.80934026  1
  Mo  Mo60  1  4.72663707  4.76911490  1.41234330  1
  Mo  Mo61  1  9.07650429  3.44963105  3.61369399  1
  Mo  Mo62  1  7.95652129  1.66551238  1.49799402  1
  Mo  Mo63  1  6.29013512  -0.07154367  3.16976190  1
  Mo  Mo64  1  6.34899642  3.11419716  -0.06578375  1
  Mo  Mo65  1  7.84386268  4.81650777  1.52997651  1
  Mo  Mo66  1  6.30669731  3.21228938  3.11937036  1
  Mo  Mo67  1  9.60603745  3.22077899  -0.09545230  1
  Mo  Mo68  1  9.46207156  -0.09527715  3.13214946  1
  Mo  Mo69  1  6.38001576  3.27534086  6.36216276  1
  Mo  Mo70  1  4.70768191  1.58082480  4.67081416  1
  Mo  Mo71  1  4.76928370  4.80198111  4.81107641  1
  Mo  Mo72  1  7.81263482  1.51918329  4.89434408  1
  Mo  Mo73  1  9.60285013  3.10981831  6.39049124  1
  Mo  Mo74  1  7.79525843  5.01227518  4.90785795  1
  Mo  Mo75  1  4.78187414  1.65772775  7.95682910  1
  Mo  Mo76  1  4.80986503  1.50889647  11.08067760  1
  Mo  Mo77  1  7.91260369  1.52091100  7.93278017  1
  Mo  Mo78  1  7.89073923  1.39172000  11.10560031  1
  Mo  Mo79  1  7.98393627  4.81035156  8.03189512  1
  Mo  Mo80  1  6.33265268  3.11209213  9.55574521  1
  Mo  Mo81  1  7.91375550  4.72746121  11.08772745  1
  Mo  Mo82  1  7.94541032  4.73456070  14.26095470  1
  Mo  Mo83  1  6.31321097  3.09634416  12.60205528  1
  Mo  Mo84  1  9.47362934  3.09718815  12.66431242  1
  Mo  Mo85  1  4.77075325  1.55653757  14.17655508  1
  Mo  Mo86  1  7.93828104  1.52895379  14.18847032  1
  Mo  Mo87  1  6.28104975  6.26081370  12.66609970  1
  Mo  Mo88  1  6.32327935  6.34232388  15.77736770  1
  Mo  Mo89  1  4.72866266  7.85585736  1.56526548  1
  Mo  Mo90  1  4.78816936  11.04175448  1.58668313  1
  Mo  Mo91  1  9.54597471  9.44839882  3.11210206  1
  Mo  Mo92  1  7.90580208  7.95085162  1.44573576  1
  Mo  Mo93  1  6.32290204  6.33242430  3.10824947  1
  Mo  Mo94  1  7.89838484  11.11324593  1.53867464  1
  Mo  Mo95  1  6.33628682  9.52230310  3.16028928  1
  Mo  Mo96  1  9.49833361  6.43108250  3.06410350  1
  Mo  Mo97  1  6.30334118  12.80719601  6.41307062  1
  Mo  Mo98  1  6.35145890  9.59286118  6.41568205  1
  Mo  Mo99  1  7.90894969  11.14273615  4.70304489  1
  Mo  Mo100  1  7.99112513  8.05808879  4.72642855  1
  Mo  Mo101  1  6.42700153  6.45781235  6.45037526  1
  Mo  Mo102  1  9.50435080  12.69678145  6.29152524  1
  Mo  Mo103  1  7.96935996  11.10639466  7.96773154  1
  Mo  Mo104  1  7.97635023  7.99526568  7.91840245  1
  Mo  Mo105  1  6.32308077  6.39897092  9.48257570  1
  Mo  Mo106  1  7.94674086  7.94381170  11.04860574  1
  Mo  Mo107  1  6.28574634  9.43646372  9.50366568  1
  Mo  Mo108  1  7.85521195  10.99756880  11.06201039  1
  Mo  Mo109  1  6.33128242  12.61297759  9.43468636  1
  Mo  Mo110  1  7.93897609  11.00759746  14.29987782  1
  Mo  Mo111  1  6.30188157  9.39902007  12.63263773  1
  Mo  Mo112  1  7.82884948  7.94179604  14.19939262  1
  Mo  Mo113  1  4.90436282  10.97145456  14.11479441  1
  Mo  Mo114  1  9.51272126  12.60106235  12.64226922  1
  Mo  Mo115  1  6.36464510  12.56521733  12.59103368  1
  Mo  Mo116  1  6.33493643  9.44814065  15.81658870  1
  Mo  Mo117  1  9.43243239  12.49878986  15.79285751  1
  Mo  Mo118  1  9.55838642  6.38748264  15.80229041  1
  Mo  Mo119  1  9.45699765  9.48431334  15.80298547  1
  Mo  Mo120  1  6.41520544  12.71038468  15.85729911  1
