# generated using pymatgen
data_Mo
_symmetry_space_group_name_H-M   'P 1'
_cell_length_a   9.64000000
_cell_length_b   9.64000000
_cell_length_c   9.64000000
_cell_angle_alpha   90.00000000
_cell_angle_beta   90.00000000
_cell_angle_gamma   90.00000000
_symmetry_Int_Tables_number   1
_chemical_formula_structural   Mo
_chemical_formula_sum   Mo54
_cell_volume   895.84134400
_cell_formula_units_Z   54
loop_
 _symmetry_equiv_pos_site_id
 _symmetry_equiv_pos_as_xyz
  1  'x, y, z'
loop_
 _atom_site_type_symbol
 _atom_site_label
 _atom_site_symmetry_multiplicity
 _atom_site_fract_x
 _atom_site_fract_y
 _atom_site_fract_z
 _atom_site_occupancy
  Mo  Mo0  1  3.14521000  3.55979000  2.84406000  1
  Mo  Mo1  1  1.68302000  1.65849000  1.63973000  1
  Mo  Mo2  1  0.13545000  0.04131600  2.97492000  1
  Mo  Mo3  1  4.82688000  5.03706000  1.58573000  1
  Mo  Mo4  1  4.66924000  1.56619000  1.52076000  1
  Mo  Mo5  1  4.87560000  4.63096000  4.69398000  1
  Mo  Mo6  1  4.94656000  1.85735000  4.78494000  1
  Mo  Mo7  1  3.44776000  3.34021000  6.40675000  1
  Mo  Mo8  1  1.46355000  1.52203000  8.19280000  1
  Mo  Mo9  1  1.25965000  4.97719000  7.92967000  1
  Mo  Mo10  1  1.72074000  5.06601000  4.62598000  1
  Mo  Mo11  1  -0.13858600  2.97613000  9.61424000  1
  Mo  Mo12  1  -0.12306500  3.17262000  6.54482000  1
  Mo  Mo13  1  3.04597000  0.22819500  6.37598000  1
  Mo  Mo14  1  -0.10795300  -0.12773100  6.35609000  1
  Mo  Mo15  1  2.84260000  3.37238000  9.49002000  1
  Mo  Mo16  1  1.57678000  1.64516000  4.93604000  1
  Mo  Mo17  1  3.33245000  6.38913000  3.42252000  1
  Mo  Mo18  1  1.42225000  8.05630000  1.53527000  1
  Mo  Mo19  1  3.08863000  9.79252000  3.23013000  1
  Mo  Mo20  1  1.70305000  4.82852000  1.36731000  1
  Mo  Mo21  1  4.92763000  7.99209000  1.31901000  1
  Mo  Mo22  1  3.07402000  6.35399000  0.07796760  1
  Mo  Mo23  1  3.12119000  6.24466000  6.37286000  1
  Mo  Mo24  1  1.43253000  7.92158000  7.88543000  1
  Mo  Mo25  1  4.66666000  7.79816000  7.84001000  1
  Mo  Mo26  1  4.58549000  4.89430000  8.19207000  1
  Mo  Mo27  1  -0.03206000  9.35132000  9.34623000  1
  Mo  Mo28  1  1.59261000  7.97825000  4.95616000  1
  Mo  Mo29  1  4.61116000  7.95278000  4.97592000  1
  Mo  Mo30  1  3.16597000  9.53018000  9.43801000  1
  Mo  Mo31  1  6.54378000  3.15788000  3.19871000  1
  Mo  Mo32  1  8.24270000  1.59149000  1.43191000  1
  Mo  Mo33  1  9.45638000  3.18578000  3.24244000  1
  Mo  Mo34  1  7.87538000  1.44498000  5.08555000  1
  Mo  Mo35  1  6.36675000  3.37284000  6.53126000  1
  Mo  Mo36  1  7.90646000  1.30679000  8.04984000  1
  Mo  Mo37  1  6.14020000  3.22209000  9.38035000  1
  Mo  Mo38  1  4.89287000  1.36940000  7.82164000  1
  Mo  Mo39  1  7.85226000  4.64447000  7.98170000  1
  Mo  Mo40  1  6.35678000  0.07236420  9.61604000  1
  Mo  Mo41  1  6.56941000  6.39937000  3.11115000  1
  Mo  Mo42  1  7.91313000  8.16087000  1.76708000  1
  Mo  Mo43  1  8.24603000  4.68810000  4.85617000  1
  Mo  Mo44  1  8.40084000  7.85381000  4.95617000  1
  Mo  Mo45  1  9.71755000  6.27428000  3.09074000  1
  Mo  Mo46  1  7.99287000  4.64118000  1.37130000  1
  Mo  Mo47  1  6.32246000  9.71250000  3.53660000  1
  Mo  Mo48  1  9.53676000  6.22424000  -0.12691500  1
  Mo  Mo49  1  6.52812000  6.29018000  6.26093000  1
  Mo  Mo50  1  7.92648000  7.84068000  7.97992000  1
  Mo  Mo51  1  9.62362000  6.37708000  6.54416000  1
  Mo  Mo52  1  6.22297000  9.21618000  6.14281000  1
  Mo  Mo53  1  6.61524000  6.19633000  9.82503000  1
