# generated using pymatgen
data_Mo
_symmetry_space_group_name_H-M   'P 1'
_cell_length_a   9.46603805
_cell_length_b   9.46603785
_cell_length_c   9.46603779
_cell_angle_alpha   90.00000282
_cell_angle_beta   89.99999931
_cell_angle_gamma   89.99999840
_symmetry_Int_Tables_number   1
_chemical_formula_structural   Mo
_chemical_formula_sum   Mo53
_cell_volume   848.21259331
_cell_formula_units_Z   53
loop_
 _symmetry_equiv_pos_site_id
 _symmetry_equiv_pos_as_xyz
  1  'x, y, z'
loop_
 _atom_site_type_symbol
 _atom_site_label
 _atom_site_symmetry_multiplicity
 _atom_site_fract_x
 _atom_site_fract_y
 _atom_site_fract_z
 _atom_site_occupancy
  Mo  Mo0  1  1.57139038  1.55328366  1.58920021  1
  Mo  Mo1  1  -0.01548523  -0.01611422  3.09645568  1
  Mo  Mo2  1  1.59797643  1.53337298  4.74051425  1
  Mo  Mo3  1  -0.02370016  -0.02507958  6.34458766  1
  Mo  Mo4  1  1.51967544  1.58175241  7.89962516  1
  Mo  Mo5  1  -0.00629691  3.08024870  0.02635576  1
  Mo  Mo6  1  1.56978599  4.73955034  1.57538491  1
  Mo  Mo7  1  -0.01281461  3.13506283  3.17370571  1
  Mo  Mo8  1  1.59357270  4.75402368  4.74943703  1
  Mo  Mo9  1  0.00757080  3.19014033  6.30662907  1
  Mo  Mo10  1  1.57471714  4.74812849  7.92951891  1
  Mo  Mo11  1  0.00031892  6.32339606  0.00000425  1
  Mo  Mo12  1  1.55872625  7.90339908  1.59729524  1
  Mo  Mo13  1  -0.01283683  6.32567753  3.12888543  1
  Mo  Mo14  1  1.57890465  7.88643157  4.72056467  1
  Mo  Mo15  1  0.02793546  6.30309615  6.30164031  1
  Mo  Mo16  1  1.58273969  7.89500196  7.89778555  1
  Mo  Mo17  1  3.13039965  0.01178202  -0.04455723  1
  Mo  Mo18  1  4.73095702  1.60174927  1.57980336  1
  Mo  Mo19  1  3.14256326  -0.00439626  3.19706084  1
  Mo  Mo20  1  4.72785609  1.57572618  4.71570317  1
  Mo  Mo21  1  3.18930221  -0.00057582  6.32410457  1
  Mo  Mo22  1  4.75616487  1.57651531  7.88918916  1
  Mo  Mo23  1  3.13754395  3.17296685  0.00489682  1
  Mo  Mo24  1  4.77847335  4.74670215  1.55928457  1
  Mo  Mo25  1  3.14630135  3.20096999  3.14551444  1
  Mo  Mo26  1  4.73259003  4.70490300  4.76729442  1
  Mo  Mo27  1  3.15348583  3.17842542  6.29925348  1
  Mo  Mo28  1  4.74909059  4.77415296  7.88854114  1
  Mo  Mo29  1  3.16066796  6.29464468  0.00362931  1
  Mo  Mo30  1  4.72764039  7.87749506  1.60362485  1
  Mo  Mo31  1  3.16207073  6.32772499  3.13753196  1
  Mo  Mo32  1  4.69652139  7.91160233  4.72707828  1
  Mo  Mo33  1  3.13254077  6.31023099  6.28016163  1
  Mo  Mo34  1  4.70287988  7.91139871  7.88360175  1
  Mo  Mo35  1  6.37186894  -0.05673822  0.01796082  1
  Mo  Mo36  1  7.89131765  1.56767390  1.58354366  1
  Mo  Mo37  1  6.28793076  -0.00641419  3.17321335  1
  Mo  Mo38  1  7.86101739  1.56083322  4.73350063  1
  Mo  Mo39  1  6.32375008  -0.01556964  6.30416758  1
  Mo  Mo40  1  7.87452591  1.55281054  7.89949527  1
  Mo  Mo41  1  6.32211071  3.15397820  -0.00786180  1
  Mo  Mo42  1  7.87110316  4.73022062  1.59741960  1
  Mo  Mo43  1  6.29882891  3.19669559  3.14006292  1
  Mo  Mo44  1  7.92069520  4.76741428  4.71634159  1
  Mo  Mo45  1  6.26442248  3.13961371  6.32053443  1
  Mo  Mo46  1  7.90128983  4.72870653  7.93086655  1
  Mo  Mo47  1  6.34416465  6.31574667  -0.03838455  1
  Mo  Mo48  1  7.91531075  7.87624510  1.54671243  1
  Mo  Mo49  1  6.29356419  6.30398750  3.09345592  1
  Mo  Mo50  1  7.89948755  7.87809963  4.72443521  1
  Mo  Mo51  1  6.36503171  6.31938034  6.29166587  1
  Mo  Mo52  1  7.91021495  7.88977973  7.91941441  1
