# generated using pymatgen
data_Mo
_symmetry_space_group_name_H-M   'P 1'
_cell_length_a   9.46604618
_cell_length_b   9.46604503
_cell_length_c   9.46605243
_cell_angle_alpha   89.99993799
_cell_angle_beta   90.00002894
_cell_angle_gamma   90.00006502
_symmetry_Int_Tables_number   1
_chemical_formula_structural   Mo
_chemical_formula_sum   Mo53
_cell_volume   848.21527775
_cell_formula_units_Z   53
loop_
 _symmetry_equiv_pos_site_id
 _symmetry_equiv_pos_as_xyz
  1  'x, y, z'
loop_
 _atom_site_type_symbol
 _atom_site_label
 _atom_site_symmetry_multiplicity
 _atom_site_fract_x
 _atom_site_fract_y
 _atom_site_fract_z
 _atom_site_occupancy
  Mo  Mo0  1  1.56399357  1.54853150  1.52183299  1
  Mo  Mo1  1  0.04390033  0.05303933  3.08560862  1
  Mo  Mo2  1  1.61564856  1.55121086  4.65316597  1
  Mo  Mo3  1  0.01159612  0.05998602  6.26980089  1
  Mo  Mo4  1  1.58318178  1.55484744  7.93891411  1
  Mo  Mo5  1  0.01960722  3.14353797  0.01820411  1
  Mo  Mo6  1  1.56545528  4.73174098  1.62513849  1
  Mo  Mo7  1  -0.02094131  3.13323184  3.17799634  1
  Mo  Mo8  1  1.56992805  4.70968689  4.78619413  1
  Mo  Mo9  1  0.06269693  3.19730881  6.28166230  1
  Mo  Mo10  1  1.53949068  4.72209243  7.94639594  1
  Mo  Mo11  1  -0.05469083  6.30908123  -0.04287440  1
  Mo  Mo12  1  1.54272635  7.83060358  1.60463130  1
  Mo  Mo13  1  0.00225673  6.36764996  3.12239852  1
  Mo  Mo14  1  1.61484692  7.86318076  4.70472827  1
  Mo  Mo15  1  -0.00931616  6.34915410  6.28175953  1
  Mo  Mo16  1  1.46433319  7.89928739  7.89727158  1
  Mo  Mo17  1  3.11056645  -0.06373671  -0.03412667  1
  Mo  Mo18  1  4.75861692  1.59642351  1.54475020  1
  Mo  Mo19  1  3.09978147  -0.02487583  3.07250040  1
  Mo  Mo20  1  4.72310435  1.59667856  4.74878335  1
  Mo  Mo21  1  3.11862603  0.09591115  6.26418589  1
  Mo  Mo22  1  4.76935395  1.56642514  7.90621085  1
  Mo  Mo23  1  3.17963276  3.19811775  0.05740096  1
  Mo  Mo24  1  4.76433327  4.72262955  1.55863673  1
  Mo  Mo25  1  3.08978984  3.17562383  3.11255649  1
  Mo  Mo26  1  4.71127534  4.71252628  4.74978662  1
  Mo  Mo27  1  3.13521310  3.14779780  6.33803429  1
  Mo  Mo28  1  4.75465142  4.69852720  7.87503498  1
  Mo  Mo29  1  3.14538504  6.36780413  -0.02343767  1
  Mo  Mo30  1  4.75584119  7.88468083  1.59904211  1
  Mo  Mo31  1  3.15731544  6.29822046  3.14854290  1
  Mo  Mo32  1  4.79557779  7.91748198  4.82920237  1
  Mo  Mo33  1  3.15313510  6.32951009  6.35142134  1
  Mo  Mo34  1  4.73352569  7.84227176  8.00169311  1
  Mo  Mo35  1  6.32746332  -0.02260046  -0.00336253  1
  Mo  Mo36  1  7.93273950  1.52327343  1.54164967  1
  Mo  Mo37  1  6.25026244  -0.02454636  3.19428013  1
  Mo  Mo38  1  7.92046973  1.58374264  4.70044689  1
  Mo  Mo39  1  6.31060139  0.01286831  6.36014595  1
  Mo  Mo40  1  8.01293953  1.55595791  7.90409392  1
  Mo  Mo41  1  6.36216173  3.07927878  -0.00919107  1
  Mo  Mo42  1  7.90901082  4.76261788  1.60019107  1
  Mo  Mo43  1  6.27773564  3.14461993  3.14568235  1
  Mo  Mo44  1  7.86821651  4.77984515  4.70072241  1
  Mo  Mo45  1  6.31604647  3.11901205  6.27312106  1
  Mo  Mo46  1  7.90091315  4.69518900  7.83486907  1
  Mo  Mo47  1  6.29470479  6.23573706  -0.02890631  1
  Mo  Mo48  1  7.85579768  7.95369015  1.58939588  1
  Mo  Mo49  1  6.33878422  6.33805554  3.18391826  1
  Mo  Mo50  1  7.86815723  7.96529621  4.79285583  1
  Mo  Mo51  1  6.25104909  6.27157042  6.32876238  1
  Mo  Mo52  1  7.91837278  7.92621145  7.90451926  1
