# generated using pymatgen
data_Mo
_symmetry_space_group_name_H-M   'P 1'
_cell_length_a   9.46604618
_cell_length_b   9.46604503
_cell_length_c   9.46605243
_cell_angle_alpha   89.99993799
_cell_angle_beta   90.00002894
_cell_angle_gamma   90.00006502
_symmetry_Int_Tables_number   1
_chemical_formula_structural   Mo
_chemical_formula_sum   Mo53
_cell_volume   848.21527775
_cell_formula_units_Z   53
loop_
 _symmetry_equiv_pos_site_id
 _symmetry_equiv_pos_as_xyz
  1  'x, y, z'
loop_
 _atom_site_type_symbol
 _atom_site_label
 _atom_site_symmetry_multiplicity
 _atom_site_fract_x
 _atom_site_fract_y
 _atom_site_fract_z
 _atom_site_occupancy
  Mo  Mo0  1  1.56197697  1.47819005  1.52119768  1
  Mo  Mo1  1  -0.03999258  -0.02104189  3.11379554  1
  Mo  Mo2  1  1.52005641  1.56822276  4.72843403  1
  Mo  Mo3  1  0.05220980  0.01626998  6.36712533  1
  Mo  Mo4  1  1.57965326  1.57340721  7.88482084  1
  Mo  Mo5  1  -0.00674472  3.14134608  0.03233549  1
  Mo  Mo6  1  1.56855771  4.76110121  1.61287215  1
  Mo  Mo7  1  0.03999815  3.20575034  3.15453610  1
  Mo  Mo8  1  1.57888579  4.77707825  4.73896139  1
  Mo  Mo9  1  -0.03387416  3.17161038  6.34323929  1
  Mo  Mo10  1  1.49835929  4.73542377  7.93178621  1
  Mo  Mo11  1  -0.03878659  6.33392333  -0.02050719  1
  Mo  Mo12  1  1.54199494  7.91698770  1.48567964  1
  Mo  Mo13  1  -0.02199315  6.32357099  3.14966968  1
  Mo  Mo14  1  1.49234648  7.98232257  4.72212164  1
  Mo  Mo15  1  -0.06819312  6.35626982  6.24571848  1
  Mo  Mo16  1  1.56142723  7.86682870  7.94891061  1
  Mo  Mo17  1  3.16106330  0.01888548  -0.01755564  1
  Mo  Mo18  1  4.73216516  1.44140155  1.49595971  1
  Mo  Mo19  1  3.21693133  -0.00904984  3.16568690  1
  Mo  Mo20  1  4.69166983  1.55237892  4.68548217  1
  Mo  Mo21  1  3.20573394  -0.00216052  6.35793270  1
  Mo  Mo22  1  4.71369945  1.50573615  7.85357900  1
  Mo  Mo23  1  3.17828291  3.15916413  -0.02102114  1
  Mo  Mo24  1  4.81502743  4.73600294  1.55881787  1
  Mo  Mo25  1  3.26172644  3.17404353  3.11706710  1
  Mo  Mo26  1  4.76552227  4.77413661  4.73266703  1
  Mo  Mo27  1  3.17810437  3.21478380  6.28584575  1
  Mo  Mo28  1  4.73889251  4.70728210  7.91964360  1
  Mo  Mo29  1  3.12078980  6.17917011  -0.00078383  1
  Mo  Mo30  1  4.72394891  7.88406047  1.61791708  1
  Mo  Mo31  1  3.20568451  6.30662823  3.19301269  1
  Mo  Mo32  1  4.65074717  7.91981583  4.83963825  1
  Mo  Mo33  1  3.08148569  6.32780390  6.31938083  1
  Mo  Mo34  1  4.72524786  7.89835418  7.99242721  1
  Mo  Mo35  1  6.36998738  0.01986622  0.05347423  1
  Mo  Mo36  1  7.95592201  1.57743828  1.58693982  1
  Mo  Mo37  1  6.28695876  0.01456213  3.21464164  1
  Mo  Mo38  1  7.92400148  1.59900647  4.72807275  1
  Mo  Mo39  1  6.32170136  0.01551830  6.35934856  1
  Mo  Mo40  1  7.92857660  1.49475859  7.89732945  1
  Mo  Mo41  1  6.30019234  3.15733509  -0.04550641  1
  Mo  Mo42  1  7.95017485  4.74261516  1.52718357  1
  Mo  Mo43  1  6.28989512  3.11379803  3.11066726  1
  Mo  Mo44  1  7.95009022  4.72807689  4.71283621  1
  Mo  Mo45  1  6.31931217  3.13456493  6.28717207  1
  Mo  Mo46  1  7.89909077  4.72272087  7.89440980  1
  Mo  Mo47  1  6.31781771  6.33238535  -0.02270243  1
  Mo  Mo48  1  7.89011197  7.87358159  1.56226764  1
  Mo  Mo49  1  6.24551309  6.27993629  3.16622560  1
  Mo  Mo50  1  7.91087149  7.97186002  4.70419426  1
  Mo  Mo51  1  6.28643088  6.29606685  6.29670659  1
  Mo  Mo52  1  7.88661179  7.93621785  7.89658638  1
