# generated using pymatgen
data_Mo
_symmetry_space_group_name_H-M   'P 1'
_cell_length_a   9.46604618
_cell_length_b   9.46604503
_cell_length_c   9.46605243
_cell_angle_alpha   89.99993799
_cell_angle_beta   90.00002894
_cell_angle_gamma   90.00006502
_symmetry_Int_Tables_number   1
_chemical_formula_structural   Mo
_chemical_formula_sum   Mo53
_cell_volume   848.21527775
_cell_formula_units_Z   53
loop_
 _symmetry_equiv_pos_site_id
 _symmetry_equiv_pos_as_xyz
  1  'x, y, z'
loop_
 _atom_site_type_symbol
 _atom_site_label
 _atom_site_symmetry_multiplicity
 _atom_site_fract_x
 _atom_site_fract_y
 _atom_site_fract_z
 _atom_site_occupancy
  Mo  Mo0  1  1.55727960  1.49519894  1.54158245  1
  Mo  Mo1  1  -0.04369308  -0.04693660  3.11381048  1
  Mo  Mo2  1  1.52356558  1.58912871  4.74138050  1
  Mo  Mo3  1  0.00394269  -0.00030901  6.41094916  1
  Mo  Mo4  1  1.54476319  1.57768960  7.87955147  1
  Mo  Mo5  1  -0.00149698  3.12224287  0.02627050  1
  Mo  Mo6  1  1.58738272  4.73034996  1.58556555  1
  Mo  Mo7  1  0.06313741  3.20765926  3.17414839  1
  Mo  Mo8  1  1.55932262  4.80207544  4.70684979  1
  Mo  Mo9  1  -0.05477526  3.16337218  6.39035708  1
  Mo  Mo10  1  1.50388552  4.74896151  7.90339894  1
  Mo  Mo11  1  -0.00685438  6.35330526  -0.00874888  1
  Mo  Mo12  1  1.52712077  7.99896667  1.48734239  1
  Mo  Mo13  1  0.00115510  6.26404108  3.10956391  1
  Mo  Mo14  1  1.49506499  8.00782122  4.73601175  1
  Mo  Mo15  1  -0.04732451  6.26960000  6.28352030  1
  Mo  Mo16  1  1.61408729  7.89047396  7.97251652  1
  Mo  Mo17  1  3.14102507  0.00118653  0.02070628  1
  Mo  Mo18  1  4.71554106  1.50695259  1.49620684  1
  Mo  Mo19  1  3.16797602  -0.00546795  3.19593247  1
  Mo  Mo20  1  4.74108018  1.53631100  4.69210960  1
  Mo  Mo21  1  3.18530928  -0.04662945  6.35784829  1
  Mo  Mo22  1  4.75824765  1.54401439  7.84024315  1
  Mo  Mo23  1  3.17482994  3.11944042  -0.07256716  1
  Mo  Mo24  1  4.74910737  4.71590301  1.55837905  1
  Mo  Mo25  1  3.24456291  3.16571010  3.18003022  1
  Mo  Mo26  1  4.76054327  4.74318776  4.74895104  1
  Mo  Mo27  1  3.19418660  3.21765011  6.24747276  1
  Mo  Mo28  1  4.69104380  4.73085888  7.89274064  1
  Mo  Mo29  1  3.18247103  6.19937650  0.03429174  1
  Mo  Mo30  1  4.69668231  7.89349408  1.64033372  1
  Mo  Mo31  1  3.18404325  6.30561545  3.17585527  1
  Mo  Mo32  1  4.64069659  7.88459744  4.74826764  1
  Mo  Mo33  1  3.12486290  6.28309405  6.30627596  1
  Mo  Mo34  1  4.70674713  7.92342633  7.92826080  1
  Mo  Mo35  1  6.36720664  -0.01307976  0.03330267  1
  Mo  Mo36  1  7.91407538  1.58368966  1.57446864  1
  Mo  Mo37  1  6.32592000  0.02584916  3.20400192  1
  Mo  Mo38  1  7.92685296  1.53110794  4.74683444  1
  Mo  Mo39  1  6.30842449  0.03123910  6.32163618  1
  Mo  Mo40  1  7.89082054  1.51488331  7.88921314  1
  Mo  Mo41  1  6.28456911  3.20292639  -0.02746433  1
  Mo  Mo42  1  7.96522130  4.70018200  1.50889221  1
  Mo  Mo43  1  6.36127643  3.18763936  3.13270226  1
  Mo  Mo44  1  7.90864322  4.71188538  4.73539381  1
  Mo  Mo45  1  6.26958932  3.20989134  6.28470567  1
  Mo  Mo46  1  7.88997897  4.74455363  7.89490380  1
  Mo  Mo47  1  6.30595816  6.33580948  0.00017370  1
  Mo  Mo48  1  7.96030278  7.88017770  1.57648970  1
  Mo  Mo49  1  6.28105887  6.29256877  3.15274843  1
  Mo  Mo50  1  7.90096731  7.90856398  4.68900620  1
  Mo  Mo51  1  6.34055777  6.32834882  6.28530692  1
  Mo  Mo52  1  7.89892178  7.91740911  7.93851724  1
