# generated using pymatgen
data_Mo
_symmetry_space_group_name_H-M   'P 1'
_cell_length_a   9.46603830
_cell_length_b   9.46603830
_cell_length_c   9.46603730
_cell_angle_alpha   90.00000000
_cell_angle_beta   90.00000000
_cell_angle_gamma   90.00000000
_symmetry_Int_Tables_number   1
_chemical_formula_structural   Mo
_chemical_formula_sum   Mo53
_cell_volume   848.21261229
_cell_formula_units_Z   53
loop_
 _symmetry_equiv_pos_site_id
 _symmetry_equiv_pos_as_xyz
  1  'x, y, z'
loop_
 _atom_site_type_symbol
 _atom_site_label
 _atom_site_symmetry_multiplicity
 _atom_site_fract_x
 _atom_site_fract_y
 _atom_site_fract_z
 _atom_site_occupancy
  Mo  Mo0  1  1.59054316  1.56862178  1.54238127  1
  Mo  Mo1  1  -0.01689400  0.02830058  3.11552798  1
  Mo  Mo2  1  1.58358644  1.56417980  4.73606563  1
  Mo  Mo3  1  -0.00059094  0.02068358  6.31468005  1
  Mo  Mo4  1  1.56465296  1.57220274  7.92698952  1
  Mo  Mo5  1  0.03687358  3.12943398  -0.00404235  1
  Mo  Mo6  1  1.56552608  4.74638243  1.58385649  1
  Mo  Mo7  1  -0.02260256  3.14640047  3.13217426  1
  Mo  Mo8  1  1.53838868  4.72316621  4.69353918  1
  Mo  Mo9  1  -0.04636225  3.16296724  6.30007172  1
  Mo  Mo10  1  1.53250657  4.75639111  7.88571675  1
  Mo  Mo11  1  -0.00585116  6.30344214  -0.03237416  1
  Mo  Mo12  1  1.54519809  7.87464350  1.57750669  1
  Mo  Mo13  1  -0.00931902  6.32210965  3.19349185  1
  Mo  Mo14  1  1.59447081  7.84424882  4.71828115  1
  Mo  Mo15  1  -0.01746566  6.31462130  6.32440261  1
  Mo  Mo16  1  1.54925207  7.89781725  7.84677042  1
  Mo  Mo17  1  3.14948872  -0.01336482  0.02923489  1
  Mo  Mo18  1  4.71390038  1.56611255  1.58476278  1
  Mo  Mo19  1  3.15023557  0.01794767  3.15941099  1
  Mo  Mo20  1  4.72369860  1.58026376  4.72569198  1
  Mo  Mo21  1  3.13899400  0.02692510  6.30819135  1
  Mo  Mo22  1  4.71634963  1.54247199  7.90940451  1
  Mo  Mo23  1  3.18504254  3.14472091  0.00298890  1
  Mo  Mo24  1  4.73435374  4.77537385  1.56943185  1
  Mo  Mo25  1  3.14455262  3.12040261  3.13066863  1
  Mo  Mo26  1  4.70945890  4.71089968  4.72256627  1
  Mo  Mo27  1  3.16831518  3.17156793  6.31704307  1
  Mo  Mo28  1  4.74612077  4.73761093  7.86535045  1
  Mo  Mo29  1  3.17323321  6.29973091  0.02156243  1
  Mo  Mo30  1  4.75071368  7.87808211  1.56720050  1
  Mo  Mo31  1  3.17641698  6.33035437  3.16302734  1
  Mo  Mo32  1  4.78343415  7.90744829  4.77202200  1
  Mo  Mo33  1  3.14005146  6.30485271  6.29301301  1
  Mo  Mo34  1  4.71701467  7.85780951  7.90802241  1
  Mo  Mo35  1  6.32017800  -0.01320054  0.01207262  1
  Mo  Mo36  1  7.87351907  1.60371721  1.54282918  1
  Mo  Mo37  1  6.32740374  0.00159628  3.16511135  1
  Mo  Mo38  1  7.88242475  1.55327804  4.75186455  1
  Mo  Mo39  1  6.32169749  0.00963238  6.29536643  1
  Mo  Mo40  1  7.92129870  1.57870340  7.89142640  1
  Mo  Mo41  1  6.35768633  3.12842463  0.01595946  1
  Mo  Mo42  1  7.88734806  4.72949872  1.56109892  1
  Mo  Mo43  1  6.30364895  3.15065924  3.17823042  1
  Mo  Mo44  1  7.89184675  4.72050392  4.69910453  1
  Mo  Mo45  1  6.30383297  3.16604241  6.34048367  1
  Mo  Mo46  1  7.89368462  4.79113416  7.91162962  1
  Mo  Mo47  1  6.33706777  6.32155727  -0.00251841  1
  Mo  Mo48  1  7.90472272  7.91093458  1.60440126  1
  Mo  Mo49  1  6.29348511  6.32552667  3.15270943  1
  Mo  Mo50  1  7.89269772  7.85945013  4.74285904  1
  Mo  Mo51  1  6.33715682  6.31034321  6.30996387  1
  Mo  Mo52  1  7.93287437  7.90323230  7.90863085  1
