# generated using pymatgen
data_Mo
_symmetry_space_group_name_H-M   'P 1'
_cell_length_a   9.46603830
_cell_length_b   9.46603830
_cell_length_c   9.46603730
_cell_angle_alpha   90.00000000
_cell_angle_beta   90.00000000
_cell_angle_gamma   90.00000000
_symmetry_Int_Tables_number   1
_chemical_formula_structural   Mo
_chemical_formula_sum   Mo53
_cell_volume   848.21261229
_cell_formula_units_Z   53
loop_
 _symmetry_equiv_pos_site_id
 _symmetry_equiv_pos_as_xyz
  1  'x, y, z'
loop_
 _atom_site_type_symbol
 _atom_site_label
 _atom_site_symmetry_multiplicity
 _atom_site_fract_x
 _atom_site_fract_y
 _atom_site_fract_z
 _atom_site_occupancy
  Mo  Mo0  1  1.53601004  1.51063923  1.53140257  1
  Mo  Mo1  1  0.03646508  -0.07515755  3.13401628  1
  Mo  Mo2  1  1.58123450  1.54803418  4.68931917  1
  Mo  Mo3  1  0.03915862  -0.01927056  6.37772968  1
  Mo  Mo4  1  1.56002610  1.52377840  7.84227598  1
  Mo  Mo5  1  -0.05132900  3.14811189  -0.03339101  1
  Mo  Mo6  1  1.63866900  4.67731439  1.48851541  1
  Mo  Mo7  1  -0.03022521  3.13770819  3.11765706  1
  Mo  Mo8  1  1.54936332  4.73853705  4.74589026  1
  Mo  Mo9  1  -0.00180738  3.13052083  6.29591751  1
  Mo  Mo10  1  1.60350316  4.68016307  7.86310062  1
  Mo  Mo11  1  0.01011490  6.38172026  -0.03051306  1
  Mo  Mo12  1  1.64106368  7.96862447  1.53103200  1
  Mo  Mo13  1  -0.01180128  6.24882762  3.12055658  1
  Mo  Mo14  1  1.56320382  7.90958855  4.73280847  1
  Mo  Mo15  1  0.00625389  6.29318839  6.29235634  1
  Mo  Mo16  1  1.58808906  7.85090705  7.96871387  1
  Mo  Mo17  1  3.11628482  0.02863053  -0.03579882  1
  Mo  Mo18  1  4.72767785  1.56423661  1.55906419  1
  Mo  Mo19  1  3.16017659  0.01459267  3.17831941  1
  Mo  Mo20  1  4.71799741  1.59721311  4.75495519  1
  Mo  Mo21  1  3.21389619  -0.05264783  6.35916027  1
  Mo  Mo22  1  4.75107666  1.55492159  7.89756415  1
  Mo  Mo23  1  3.09882013  3.13179571  0.02612344  1
  Mo  Mo24  1  4.76471477  4.69765388  1.58643675  1
  Mo  Mo25  1  3.13811472  3.19556636  3.18560803  1
  Mo  Mo26  1  4.70972514  4.77546647  4.78963766  1
  Mo  Mo27  1  3.10668056  3.11073848  6.31669609  1
  Mo  Mo28  1  4.73331844  4.69610993  7.93410148  1
  Mo  Mo29  1  3.14898499  6.35445014  -0.03334934  1
  Mo  Mo30  1  4.70495047  7.91402811  1.54867248  1
  Mo  Mo31  1  3.09038382  6.29212711  3.11995755  1
  Mo  Mo32  1  4.70544294  7.92847518  4.66669225  1
  Mo  Mo33  1  3.14597323  6.32443947  6.32794667  1
  Mo  Mo34  1  4.78624114  7.88211655  7.87269440  1
  Mo  Mo35  1  6.32852391  0.01321272  0.00390554  1
  Mo  Mo36  1  7.97443064  1.53212588  1.61206832  1
  Mo  Mo37  1  6.28031213  -0.00505728  3.14668522  1
  Mo  Mo38  1  7.88314423  1.64357582  4.71746810  1
  Mo  Mo39  1  6.35974916  -0.01757585  6.32196706  1
  Mo  Mo40  1  7.88910013  1.56964675  7.93219432  1
  Mo  Mo41  1  6.27512651  3.18240268  -0.01610479  1
  Mo  Mo42  1  7.95347109  4.73102791  1.60831204  1
  Mo  Mo43  1  6.28378717  3.17388864  3.14008984  1
  Mo  Mo44  1  7.87728349  4.77140192  4.81340195  1
  Mo  Mo45  1  6.25982882  3.14435192  6.28132177  1
  Mo  Mo46  1  7.92188258  4.68540517  7.92847745  1
  Mo  Mo47  1  6.28596117  6.32075726  0.00122292  1
  Mo  Mo48  1  7.89785280  7.94001742  1.54033466  1
  Mo  Mo49  1  6.30257990  6.34087821  3.17333951  1
  Mo  Mo50  1  7.91796521  8.01718591  4.76108524  1
  Mo  Mo51  1  6.27955495  6.34076604  6.35153684  1
  Mo  Mo52  1  7.93685556  7.93869587  7.94668006  1
