# generated using pymatgen
data_Mo
_symmetry_space_group_name_H-M   'P 1'
_cell_length_a   9.46603830
_cell_length_b   9.46603830
_cell_length_c   9.46603730
_cell_angle_alpha   90.00000000
_cell_angle_beta   90.00000000
_cell_angle_gamma   90.00000000
_symmetry_Int_Tables_number   1
_chemical_formula_structural   Mo
_chemical_formula_sum   Mo53
_cell_volume   848.21261229
_cell_formula_units_Z   53
loop_
 _symmetry_equiv_pos_site_id
 _symmetry_equiv_pos_as_xyz
  1  'x, y, z'
loop_
 _atom_site_type_symbol
 _atom_site_label
 _atom_site_symmetry_multiplicity
 _atom_site_fract_x
 _atom_site_fract_y
 _atom_site_fract_z
 _atom_site_occupancy
  Mo  Mo0  1  1.63406392  1.59206668  1.58585935  1
  Mo  Mo1  1  -0.00784230  0.00146227  3.10784525  1
  Mo  Mo2  1  1.57484215  1.51458669  4.73675875  1
  Mo  Mo3  1  0.00815544  0.03748132  6.35977826  1
  Mo  Mo4  1  1.58897872  1.52760794  7.91147016  1
  Mo  Mo5  1  0.01961456  3.09761464  0.03930810  1
  Mo  Mo6  1  1.52431801  4.79143728  1.54659680  1
  Mo  Mo7  1  0.04854141  3.16265822  3.23045153  1
  Mo  Mo8  1  1.58753515  4.73234723  4.73564145  1
  Mo  Mo9  1  0.06415948  3.24253953  6.34491134  1
  Mo  Mo10  1  1.50277407  4.75417162  7.87574337  1
  Mo  Mo11  1  0.02270852  6.37915130  0.07178964  1
  Mo  Mo12  1  1.46139108  7.90768310  1.56380302  1
  Mo  Mo13  1  0.03282224  6.29599619  3.15470915  1
  Mo  Mo14  1  1.50770489  7.87552264  4.74755419  1
  Mo  Mo15  1  0.04221414  6.32600272  6.28099793  1
  Mo  Mo16  1  1.48325225  7.90185886  7.89991141  1
  Mo  Mo17  1  3.05391298  -0.01352535  0.00977781  1
  Mo  Mo18  1  4.78088510  1.59254385  1.51393565  1
  Mo  Mo19  1  3.13906611  -0.02097103  3.16155824  1
  Mo  Mo20  1  4.78650142  1.51533968  4.76730782  1
  Mo  Mo21  1  3.16146233  0.07076973  6.30175750  1
  Mo  Mo22  1  4.73733208  1.54720917  7.86827049  1
  Mo  Mo23  1  3.22621382  3.21739363  0.01260083  1
  Mo  Mo24  1  4.71197386  4.74414165  1.54825200  1
  Mo  Mo25  1  3.19976373  3.18519608  3.15826622  1
  Mo  Mo26  1  4.78265205  4.65012957  4.67610914  1
  Mo  Mo27  1  3.17945150  3.18803423  6.27070709  1
  Mo  Mo28  1  4.67526313  4.76045797  7.89233175  1
  Mo  Mo29  1  3.14529457  6.34630055  0.01063240  1
  Mo  Mo30  1  4.70166593  7.97105772  1.60419057  1
  Mo  Mo31  1  3.18231078  6.30622817  3.19835898  1
  Mo  Mo32  1  4.68958523  7.84070258  4.73315605  1
  Mo  Mo33  1  3.18328555  6.30641491  6.29699727  1
  Mo  Mo34  1  4.68604864  7.92696201  7.90864408  1
  Mo  Mo35  1  6.40864716  -0.02160058  -0.00305859  1
  Mo  Mo36  1  7.88506833  1.59814457  1.52991308  1
  Mo  Mo37  1  6.28925447  0.00007311  3.13424118  1
  Mo  Mo38  1  7.93390088  1.55986076  4.74895885  1
  Mo  Mo39  1  6.29584517  0.01385960  6.30583698  1
  Mo  Mo40  1  7.92596764  1.51244073  7.93387273  1
  Mo  Mo41  1  6.30472310  3.11761311  -0.01475078  1
  Mo  Mo42  1  7.89826506  4.76390990  1.58726051  1
  Mo  Mo43  1  6.34095476  3.10864957  3.13084615  1
  Mo  Mo44  1  7.88949134  4.72770260  4.73718156  1
  Mo  Mo45  1  6.35175965  3.13925829  6.27421884  1
  Mo  Mo46  1  7.83577859  4.69583232  7.90099832  1
  Mo  Mo47  1  6.31839332  6.24422809  0.01860802  1
  Mo  Mo48  1  7.88834355  7.90619755  1.54095987  1
  Mo  Mo49  1  6.34512075  6.26383121  3.16970703  1
  Mo  Mo50  1  7.87279395  7.92238767  4.72428952  1
  Mo  Mo51  1  6.25609628  6.27109970  6.27075985  1
  Mo  Mo52  1  7.82755501  7.88779505  7.87002895  1
