# generated using pymatgen
data_Mo
_symmetry_space_group_name_H-M   'P 1'
_cell_length_a   9.46603805
_cell_length_b   9.46603785
_cell_length_c   9.46603779
_cell_angle_alpha   90.00000282
_cell_angle_beta   89.99999931
_cell_angle_gamma   89.99999840
_symmetry_Int_Tables_number   1
_chemical_formula_structural   Mo
_chemical_formula_sum   Mo53
_cell_volume   848.21259331
_cell_formula_units_Z   53
loop_
 _symmetry_equiv_pos_site_id
 _symmetry_equiv_pos_as_xyz
  1  'x, y, z'
loop_
 _atom_site_type_symbol
 _atom_site_label
 _atom_site_symmetry_multiplicity
 _atom_site_fract_x
 _atom_site_fract_y
 _atom_site_fract_z
 _atom_site_occupancy
  Mo  Mo0  1  1.61897920  1.55197315  1.62102523  1
  Mo  Mo1  1  -0.06043560  -0.01531853  3.11581483  1
  Mo  Mo2  1  1.54605260  1.49298413  4.75319206  1
  Mo  Mo3  1  -0.00425509  -0.01890939  6.33065497  1
  Mo  Mo4  1  1.53058325  1.58668816  7.86631688  1
  Mo  Mo5  1  -0.04506024  3.03262323  0.07433090  1
  Mo  Mo6  1  1.57531541  4.71560547  1.58107289  1
  Mo  Mo7  1  -0.03338205  3.13868720  3.25527346  1
  Mo  Mo8  1  1.58569330  4.73643849  4.73127161  1
  Mo  Mo9  1  -0.01439947  3.17870766  6.30883364  1
  Mo  Mo10  1  1.52269164  4.72787536  7.99966715  1
  Mo  Mo11  1  0.04769076  6.31659483  0.00355225  1
  Mo  Mo12  1  1.59431498  7.92275056  1.58356952  1
  Mo  Mo13  1  -0.00626624  6.28469128  3.11721287  1
  Mo  Mo14  1  1.52835913  7.89926096  4.71919256  1
  Mo  Mo15  1  0.06835322  6.28638951  6.26681394  1
  Mo  Mo16  1  1.59489730  7.88318723  7.89963743  1
  Mo  Mo17  1  3.12160833  0.04968333  0.00736335  1
  Mo  Mo18  1  4.73312253  1.56807731  1.51258893  1
  Mo  Mo19  1  3.12899138  0.04395958  3.19352251  1
  Mo  Mo20  1  4.71002825  1.59485150  4.73584594  1
  Mo  Mo21  1  3.17373374  0.06413116  6.33350167  1
  Mo  Mo22  1  4.71101556  1.56826993  7.94240827  1
  Mo  Mo23  1  3.15584284  3.19032896  -0.03632969  1
  Mo  Mo24  1  4.74865489  4.76643968  1.50130813  1
  Mo  Mo25  1  3.16060985  3.21921347  3.15202738  1
  Mo  Mo26  1  4.76270757  4.77482080  4.74042259  1
  Mo  Mo27  1  3.14600236  3.21061494  6.28844646  1
  Mo  Mo28  1  4.73797789  4.78843649  7.88882745  1
  Mo  Mo29  1  3.19397649  6.32502588  -0.03946671  1
  Mo  Mo30  1  4.71650696  7.94289084  1.56404296  1
  Mo  Mo31  1  3.17455796  6.29145263  3.13837523  1
  Mo  Mo32  1  4.72970332  7.87391248  4.75503321  1
  Mo  Mo33  1  3.19952597  6.32747827  6.27616718  1
  Mo  Mo34  1  4.72199375  7.93521381  7.95515201  1
  Mo  Mo35  1  6.37124077  -0.04803078  0.01573933  1
  Mo  Mo36  1  7.84375751  1.53386526  1.65003166  1
  Mo  Mo37  1  6.23017887  -0.00986739  3.17973765  1
  Mo  Mo38  1  7.88686429  1.54251214  4.74026265  1
  Mo  Mo39  1  6.32743736  -0.04202033  6.27220255  1
  Mo  Mo40  1  7.82124683  1.53278506  7.91967605  1
  Mo  Mo41  1  6.30040457  3.12390616  -0.05951057  1
  Mo  Mo42  1  7.97106254  4.70953260  1.58363514  1
  Mo  Mo43  1  6.26361783  3.20625710  3.17053609  1
  Mo  Mo44  1  7.93117003  4.75717485  4.74699497  1
  Mo  Mo45  1  6.28751494  3.18653466  6.25948748  1
  Mo  Mo46  1  7.92797472  4.71216291  7.98285619  1
  Mo  Mo47  1  6.35913275  6.27265721  -0.11775122  1
  Mo  Mo48  1  7.92887859  7.87449116  1.56717849  1
  Mo  Mo49  1  6.27095308  6.30795690  3.11558973  1
  Mo  Mo50  1  7.90726652  7.92224913  4.68704039  1
  Mo  Mo51  1  6.36095540  6.30051657  6.21267991  1
  Mo  Mo52  1  7.92051589  7.84813973  7.92279474  1
