# generated using pymatgen
data_Mo
_symmetry_space_group_name_H-M   'P 1'
_cell_length_a   9.46603830
_cell_length_b   9.46603830
_cell_length_c   9.46603730
_cell_angle_alpha   90.00000000
_cell_angle_beta   90.00000000
_cell_angle_gamma   90.00000000
_symmetry_Int_Tables_number   1
_chemical_formula_structural   Mo
_chemical_formula_sum   Mo53
_cell_volume   848.21261229
_cell_formula_units_Z   53
loop_
 _symmetry_equiv_pos_site_id
 _symmetry_equiv_pos_as_xyz
  1  'x, y, z'
loop_
 _atom_site_type_symbol
 _atom_site_label
 _atom_site_symmetry_multiplicity
 _atom_site_fract_x
 _atom_site_fract_y
 _atom_site_fract_z
 _atom_site_occupancy
  Mo  Mo0  1  1.61666304  1.64024334  1.64491367  1
  Mo  Mo1  1  -0.01907530  0.03750113  3.08531905  1
  Mo  Mo2  1  1.58770154  1.53737234  4.75321854  1
  Mo  Mo3  1  -0.01460655  0.01492359  6.29582237  1
  Mo  Mo4  1  1.59216663  1.59416972  8.00714969  1
  Mo  Mo5  1  0.01962316  3.20152364  0.04133005  1
  Mo  Mo6  1  1.55934286  4.74311899  1.60383121  1
  Mo  Mo7  1  -0.01198015  3.13860986  3.14550894  1
  Mo  Mo8  1  1.59386794  4.74690870  4.73722268  1
  Mo  Mo9  1  0.01642978  3.09798503  6.29362574  1
  Mo  Mo10  1  1.52631987  4.77325498  7.94911413  1
  Mo  Mo11  1  -0.00743311  6.39724832  -0.03699692  1
  Mo  Mo12  1  1.56515455  7.90462581  1.60853263  1
  Mo  Mo13  1  0.02193075  6.30586709  3.16529138  1
  Mo  Mo14  1  1.54692982  7.90978061  4.75863000  1
  Mo  Mo15  1  0.00105896  6.24880353  6.25847790  1
  Mo  Mo16  1  1.48296917  7.92474736  7.85509928  1
  Mo  Mo17  1  3.06411490  -0.09078521  0.01862900  1
  Mo  Mo18  1  4.73377123  1.45384698  1.57694838  1
  Mo  Mo19  1  3.17564233  -0.00012435  3.17968836  1
  Mo  Mo20  1  4.77923053  1.56941071  4.77500900  1
  Mo  Mo21  1  3.06819889  -0.02615827  6.30581965  1
  Mo  Mo22  1  4.70706061  1.58828794  7.99285575  1
  Mo  Mo23  1  3.15631222  3.14589012  -0.00168636  1
  Mo  Mo24  1  4.75442033  4.77963435  1.53811913  1
  Mo  Mo25  1  3.18717651  3.17480734  3.14945155  1
  Mo  Mo26  1  4.79359336  4.69852969  4.74574390  1
  Mo  Mo27  1  3.16950835  3.15031024  6.26939192  1
  Mo  Mo28  1  4.76569658  4.79563212  7.84205040  1
  Mo  Mo29  1  3.17623033  6.26031485  0.02041793  1
  Mo  Mo30  1  4.72383848  7.87147363  1.56587012  1
  Mo  Mo31  1  3.18009410  6.29327205  3.18970485  1
  Mo  Mo32  1  4.72671823  7.89732914  4.76004438  1
  Mo  Mo33  1  3.13550448  6.25514172  6.27876293  1
  Mo  Mo34  1  4.67680156  7.99015646  7.90051405  1
  Mo  Mo35  1  6.26142407  -0.03004325  0.05438840  1
  Mo  Mo36  1  7.94656813  1.55980569  1.46652363  1
  Mo  Mo37  1  6.27477671  0.03584053  3.21757070  1
  Mo  Mo38  1  7.95425046  1.55011330  4.69694555  1
  Mo  Mo39  1  6.28130297  -0.04966656  6.32248458  1
  Mo  Mo40  1  7.85230402  1.58467025  7.88171985  1
  Mo  Mo41  1  6.29860458  3.10866903  -0.03527990  1
  Mo  Mo42  1  7.87512176  4.71436502  1.53576356  1
  Mo  Mo43  1  6.30533643  3.11675511  3.10019603  1
  Mo  Mo44  1  7.91600167  4.73222748  4.72533334  1
  Mo  Mo45  1  6.37568202  3.15205950  6.32648249  1
  Mo  Mo46  1  7.95029171  4.79763093  7.94920413  1
  Mo  Mo47  1  6.34815990  6.29753652  -0.01188430  1
  Mo  Mo48  1  7.84566083  7.90617440  1.59489894  1
  Mo  Mo49  1  6.32880637  6.31628375  3.10259864  1
  Mo  Mo50  1  7.89623961  7.90647001  4.69218746  1
  Mo  Mo51  1  6.34139643  6.31329797  6.30045083  1
  Mo  Mo52  1  7.88295791  7.95001340  7.79284639  1
