# generated using pymatgen
data_Mo
_symmetry_space_group_name_H-M   'P 1'
_cell_length_a   9.46603830
_cell_length_b   9.46603830
_cell_length_c   9.46603730
_cell_angle_alpha   90.00000000
_cell_angle_beta   90.00000000
_cell_angle_gamma   90.00000000
_symmetry_Int_Tables_number   1
_chemical_formula_structural   Mo
_chemical_formula_sum   Mo53
_cell_volume   848.21261229
_cell_formula_units_Z   53
loop_
 _symmetry_equiv_pos_site_id
 _symmetry_equiv_pos_as_xyz
  1  'x, y, z'
loop_
 _atom_site_type_symbol
 _atom_site_label
 _atom_site_symmetry_multiplicity
 _atom_site_fract_x
 _atom_site_fract_y
 _atom_site_fract_z
 _atom_site_occupancy
  Mo  Mo0  1  1.59931357  1.57965985  1.62511246  1
  Mo  Mo1  1  -0.00072370  0.00067280  3.08398898  1
  Mo  Mo2  1  1.55737935  1.51919377  4.76430478  1
  Mo  Mo3  1  -0.03921271  0.01959913  6.27603385  1
  Mo  Mo4  1  1.58663885  1.58109922  7.95281958  1
  Mo  Mo5  1  0.03368287  3.12250440  0.01618123  1
  Mo  Mo6  1  1.55740136  4.81264376  1.55454554  1
  Mo  Mo7  1  -0.02465644  3.18058169  3.17206112  1
  Mo  Mo8  1  1.56727657  4.73618174  4.75176229  1
  Mo  Mo9  1  0.01612362  3.09925805  6.29229867  1
  Mo  Mo10  1  1.60778290  4.74950345  7.98113082  1
  Mo  Mo11  1  0.00804412  6.35279290  -0.02832644  1
  Mo  Mo12  1  1.56871496  7.94936535  1.59492038  1
  Mo  Mo13  1  0.05151289  6.36904407  3.12161169  1
  Mo  Mo14  1  1.59570017  7.88949256  4.79335490  1
  Mo  Mo15  1  -0.03787783  6.31003668  6.28078958  1
  Mo  Mo16  1  1.51188854  7.95689947  7.96161265  1
  Mo  Mo17  1  3.07616852  -0.03193228  -0.01205003  1
  Mo  Mo18  1  4.69361028  1.52466652  1.60065407  1
  Mo  Mo19  1  3.14243739  0.01642900  3.15811065  1
  Mo  Mo20  1  4.74463974  1.57971517  4.78303437  1
  Mo  Mo21  1  3.06854397  -0.05629764  6.31404627  1
  Mo  Mo22  1  4.73496266  1.63592085  7.98259502  1
  Mo  Mo23  1  3.13555278  3.10447590  -0.04718556  1
  Mo  Mo24  1  4.71877284  4.72710680  1.53839886  1
  Mo  Mo25  1  3.17920467  3.16930126  3.17517948  1
  Mo  Mo26  1  4.77079980  4.69462558  4.69745927  1
  Mo  Mo27  1  3.15504717  3.14152802  6.32527290  1
  Mo  Mo28  1  4.72503243  4.78987584  7.88606237  1
  Mo  Mo29  1  3.19785299  6.25854212  -0.02801943  1
  Mo  Mo30  1  4.69776438  7.90201439  1.57149205  1
  Mo  Mo31  1  3.18724669  6.27813441  3.16344627  1
  Mo  Mo32  1  4.71900509  7.88882158  4.75221415  1
  Mo  Mo33  1  3.18340195  6.27956421  6.30165318  1
  Mo  Mo34  1  4.69081054  7.99477390  7.90833140  1
  Mo  Mo35  1  6.29329994  -0.05884525  -0.00144734  1
  Mo  Mo36  1  7.91550405  1.52481321  1.49832986  1
  Mo  Mo37  1  6.31586665  -0.01329513  3.20842531  1
  Mo  Mo38  1  7.97013960  1.51818732  4.72255520  1
  Mo  Mo39  1  6.25295514  0.00279795  6.39626520  1
  Mo  Mo40  1  7.85521684  1.57522608  7.91393923  1
  Mo  Mo41  1  6.31216244  3.10429250  -0.04206157  1
  Mo  Mo42  1  7.89119191  4.75615812  1.52654769  1
  Mo  Mo43  1  6.33548846  3.10200468  3.08332451  1
  Mo  Mo44  1  7.87685382  4.74843809  4.71138841  1
  Mo  Mo45  1  6.37931644  3.15240971  6.30579538  1
  Mo  Mo46  1  7.91047411  4.77614331  7.88330793  1
  Mo  Mo47  1  6.35661710  6.28811709  0.02128642  1
  Mo  Mo48  1  7.88832925  7.90127426  1.54803209  1
  Mo  Mo49  1  6.35166956  6.31172626  3.14516289  1
  Mo  Mo50  1  7.88328445  7.91274902  4.68184162  1
  Mo  Mo51  1  6.30019196  6.33671738  6.29926640  1
  Mo  Mo52  1  7.91745687  7.92114755  7.81899897  1
