# generated using pymatgen
data_Mo
_symmetry_space_group_name_H-M   'P 1'
_cell_length_a   9.46603830
_cell_length_b   9.46603830
_cell_length_c   9.46603730
_cell_angle_alpha   90.00000000
_cell_angle_beta   90.00000000
_cell_angle_gamma   90.00000000
_symmetry_Int_Tables_number   1
_chemical_formula_structural   Mo
_chemical_formula_sum   Mo53
_cell_volume   848.21261229
_cell_formula_units_Z   53
loop_
 _symmetry_equiv_pos_site_id
 _symmetry_equiv_pos_as_xyz
  1  'x, y, z'
loop_
 _atom_site_type_symbol
 _atom_site_label
 _atom_site_symmetry_multiplicity
 _atom_site_fract_x
 _atom_site_fract_y
 _atom_site_fract_z
 _atom_site_occupancy
  Mo  Mo0  1  1.48101131  1.51041517  1.56560988  1
  Mo  Mo1  1  0.04389424  -0.00700953  3.17405842  1
  Mo  Mo2  1  1.53637640  1.54556278  4.74011889  1
  Mo  Mo3  1  -0.02043661  -0.06233430  6.38791683  1
  Mo  Mo4  1  1.52532190  1.55226661  7.86080269  1
  Mo  Mo5  1  -0.02699617  3.05157686  -0.04491667  1
  Mo  Mo6  1  1.51053599  4.74431738  1.58848753  1
  Mo  Mo7  1  0.02143785  3.23617887  3.14668081  1
  Mo  Mo8  1  1.54388442  4.72724906  4.78200614  1
  Mo  Mo9  1  -0.03453135  3.20083365  6.28993007  1
  Mo  Mo10  1  1.59016696  4.74065770  7.91520399  1
  Mo  Mo11  1  0.02723136  6.28250103  0.00854857  1
  Mo  Mo12  1  1.56194226  7.92128736  1.49826394  1
  Mo  Mo13  1  0.04394731  6.34191536  3.19165990  1
  Mo  Mo14  1  1.54279715  7.84702022  4.72702331  1
  Mo  Mo15  1  -0.00073519  6.31199464  6.36581338  1
  Mo  Mo16  1  1.58308606  7.92577495  7.99925149  1
  Mo  Mo17  1  3.19696198  0.11356555  -0.00170417  1
  Mo  Mo18  1  4.71721129  1.58625896  1.60207378  1
  Mo  Mo19  1  3.21743141  0.00746351  3.17956755  1
  Mo  Mo20  1  4.69958460  1.54467607  4.73201327  1
  Mo  Mo21  1  3.21201975  0.02714797  6.29378639  1
  Mo  Mo22  1  4.75939211  1.59435404  7.88995519  1
  Mo  Mo23  1  3.15804198  3.17585102  -0.00352339  1
  Mo  Mo24  1  4.70504459  4.65652263  1.56751898  1
  Mo  Mo25  1  3.11007263  3.14461922  3.17631434  1
  Mo  Mo26  1  4.68790738  4.73046302  4.70451056  1
  Mo  Mo27  1  3.17156399  3.16327389  6.29732918  1
  Mo  Mo28  1  4.77086785  4.71730193  7.93039182  1
  Mo  Mo29  1  3.17940473  6.37323370  -0.02880611  1
  Mo  Mo30  1  4.72071046  7.91204319  1.55031274  1
  Mo  Mo31  1  3.20182410  6.31053074  3.13300061  1
  Mo  Mo32  1  4.71481016  7.90701776  4.71340812  1
  Mo  Mo33  1  3.17191968  6.31117661  6.29732842  1
  Mo  Mo34  1  4.73987643  7.89203743  7.93478168  1
  Mo  Mo35  1  6.38504238  0.00327636  0.00719891  1
  Mo  Mo36  1  7.86952200  1.50362593  1.60424470  1
  Mo  Mo37  1  6.34342940  -0.04139220  3.16043130  1
  Mo  Mo38  1  7.85609164  1.58003916  4.70934954  1
  Mo  Mo39  1  6.27316855  0.05710258  6.30465000  1
  Mo  Mo40  1  7.98755489  1.58618895  7.93696725  1
  Mo  Mo41  1  6.32658066  3.16327111  0.03090478  1
  Mo  Mo42  1  7.91068293  4.73474383  1.49791725  1
  Mo  Mo43  1  6.32191103  3.15659421  3.19763480  1
  Mo  Mo44  1  7.91698681  4.76614485  4.68559698  1
  Mo  Mo45  1  6.24763761  3.18975490  6.23944103  1
  Mo  Mo46  1  7.92987683  4.71731798  7.81933320  1
  Mo  Mo47  1  6.28309534  6.25447768  -0.00138727  1
  Mo  Mo48  1  7.93224452  7.90664966  1.47517031  1
  Mo  Mo49  1  6.29359291  6.26997268  3.18179917  1
  Mo  Mo50  1  7.89243074  7.93305554  4.73821154  1
  Mo  Mo51  1  6.25202385  6.29814982  6.27362577  1
  Mo  Mo52  1  7.90041049  7.86913851  7.96004822  1
