# generated using pymatgen
data_Mo
_symmetry_space_group_name_H-M   'P 1'
_cell_length_a   9.46603830
_cell_length_b   9.46603830
_cell_length_c   9.46603730
_cell_angle_alpha   90.00000000
_cell_angle_beta   90.00000000
_cell_angle_gamma   90.00000000
_symmetry_Int_Tables_number   1
_chemical_formula_structural   Mo
_chemical_formula_sum   Mo53
_cell_volume   848.21261229
_cell_formula_units_Z   53
loop_
 _symmetry_equiv_pos_site_id
 _symmetry_equiv_pos_as_xyz
  1  'x, y, z'
loop_
 _atom_site_type_symbol
 _atom_site_label
 _atom_site_symmetry_multiplicity
 _atom_site_fract_x
 _atom_site_fract_y
 _atom_site_fract_z
 _atom_site_occupancy
  Mo  Mo0  1  1.54443830  1.59353001  1.54578273  1
  Mo  Mo1  1  0.02997038  0.02518891  3.12262733  1
  Mo  Mo2  1  1.57509294  1.56034865  4.72985000  1
  Mo  Mo3  1  0.01331437  0.03307571  6.31023200  1
  Mo  Mo4  1  1.54987434  1.52983626  7.84251979  1
  Mo  Mo5  1  -0.00085540  3.18361323  0.03791787  1
  Mo  Mo6  1  1.56920264  4.73081880  1.50977426  1
  Mo  Mo7  1  0.05320350  3.13388616  3.09562446  1
  Mo  Mo8  1  1.59617992  4.72406472  4.74901482  1
  Mo  Mo9  1  -0.02545461  3.15010286  6.31442912  1
  Mo  Mo10  1  1.58550154  4.75571919  7.87440638  1
  Mo  Mo11  1  0.03831292  6.29987182  0.00553610  1
  Mo  Mo12  1  1.58167795  7.91179119  1.55888448  1
  Mo  Mo13  1  -0.02236537  6.24968858  3.20104156  1
  Mo  Mo14  1  1.49615186  7.88110404  4.69381139  1
  Mo  Mo15  1  -0.02730576  6.29065859  6.28171368  1
  Mo  Mo16  1  1.48797070  7.92930534  7.87659078  1
  Mo  Mo17  1  3.13487349  -0.03624819  0.01035815  1
  Mo  Mo18  1  4.71063951  1.58257832  1.55378188  1
  Mo  Mo19  1  3.19693378  0.04896762  3.22544983  1
  Mo  Mo20  1  4.77442019  1.58378411  4.72741444  1
  Mo  Mo21  1  3.16956205  -0.03180997  6.33767655  1
  Mo  Mo22  1  4.72490878  1.49531082  7.95632386  1
  Mo  Mo23  1  3.13192538  3.15584847  0.02030241  1
  Mo  Mo24  1  4.75786963  4.76929669  1.58392589  1
  Mo  Mo25  1  3.14771051  3.22262623  3.16504198  1
  Mo  Mo26  1  4.73723610  4.67191753  4.74393234  1
  Mo  Mo27  1  3.20869554  3.16194471  6.31229177  1
  Mo  Mo28  1  4.77118715  4.71208199  7.89832334  1
  Mo  Mo29  1  3.18342576  6.24439234  0.00273866  1
  Mo  Mo30  1  4.69357213  7.94125570  1.60409094  1
  Mo  Mo31  1  3.21567502  6.26032166  3.13082878  1
  Mo  Mo32  1  4.67122393  7.92131691  4.78253764  1
  Mo  Mo33  1  3.13759657  6.25326906  6.23678840  1
  Mo  Mo34  1  4.71430026  7.87758511  7.93457414  1
  Mo  Mo35  1  6.27828710  0.01624404  -0.01317992  1
  Mo  Mo36  1  7.84079227  1.55666369  1.55614014  1
  Mo  Mo37  1  6.28903984  0.00102113  3.11575998  1
  Mo  Mo38  1  7.97686202  1.52534235  4.68999573  1
  Mo  Mo39  1  6.33711346  0.02397266  6.29976598  1
  Mo  Mo40  1  7.91259205  1.58923409  7.92329612  1
  Mo  Mo41  1  6.30887915  3.18010832  0.02800567  1
  Mo  Mo42  1  7.92058654  4.76364487  1.56885350  1
  Mo  Mo43  1  6.34923899  3.14670685  3.19427998  1
  Mo  Mo44  1  7.91441271  4.67240806  4.72599327  1
  Mo  Mo45  1  6.30587266  3.18058628  6.32098485  1
  Mo  Mo46  1  7.92156159  4.80689479  7.91731590  1
  Mo  Mo47  1  6.34322597  6.26533062  0.00976831  1
  Mo  Mo48  1  7.86725253  7.94789870  1.55766286  1
  Mo  Mo49  1  6.28277763  6.26584718  3.18271651  1
  Mo  Mo50  1  7.83848359  7.95511565  4.76739120  1
  Mo  Mo51  1  6.28356376  6.32902589  6.27968454  1
  Mo  Mo52  1  7.88865370  7.94276821  7.88528323  1
