# generated using pymatgen
data_Mo
_symmetry_space_group_name_H-M   'P 1'
_cell_length_a   9.46603830
_cell_length_b   9.46603830
_cell_length_c   9.46603730
_cell_angle_alpha   90.00000000
_cell_angle_beta   90.00000000
_cell_angle_gamma   90.00000000
_symmetry_Int_Tables_number   1
_chemical_formula_structural   Mo
_chemical_formula_sum   Mo53
_cell_volume   848.21261229
_cell_formula_units_Z   53
loop_
 _symmetry_equiv_pos_site_id
 _symmetry_equiv_pos_as_xyz
  1  'x, y, z'
loop_
 _atom_site_type_symbol
 _atom_site_label
 _atom_site_symmetry_multiplicity
 _atom_site_fract_x
 _atom_site_fract_y
 _atom_site_fract_z
 _atom_site_occupancy
  Mo  Mo0  1  1.49675649  1.55916183  1.54248831  1
  Mo  Mo1  1  -0.01825888  -0.07209169  3.13668902  1
  Mo  Mo2  1  1.54943382  1.51851549  4.75415158  1
  Mo  Mo3  1  -0.03396383  -0.03939878  6.37210223  1
  Mo  Mo4  1  1.49608795  1.56326521  7.91450651  1
  Mo  Mo5  1  -0.03058393  3.19881191  -0.02424585  1
  Mo  Mo6  1  1.58213737  4.76191416  1.55442333  1
  Mo  Mo7  1  0.00148820  3.15970216  3.24870575  1
  Mo  Mo8  1  1.57369592  4.74344615  4.65605300  1
  Mo  Mo9  1  0.05451664  3.21586576  6.30580854  1
  Mo  Mo10  1  1.52486978  4.68500499  7.82257838  1
  Mo  Mo11  1  0.01222280  6.39043684  -0.00079776  1
  Mo  Mo12  1  1.54166181  7.97591199  1.53223874  1
  Mo  Mo13  1  0.08772186  6.29540609  3.10267468  1
  Mo  Mo14  1  1.51220836  7.98754187  4.79122060  1
  Mo  Mo15  1  0.00818976  6.30325902  6.30750812  1
  Mo  Mo16  1  1.54287753  7.91881399  7.94481310  1
  Mo  Mo17  1  3.09293016  0.07361175  0.03884009  1
  Mo  Mo18  1  4.70551716  1.53479202  1.56626632  1
  Mo  Mo19  1  3.14506852  -0.03972046  3.16004005  1
  Mo  Mo20  1  4.70476339  1.51615814  4.74361415  1
  Mo  Mo21  1  3.17679668  0.03671370  6.36664786  1
  Mo  Mo22  1  4.76382464  1.55306212  7.87419695  1
  Mo  Mo23  1  3.14625575  3.22373527  -0.03283457  1
  Mo  Mo24  1  4.73359351  4.67667688  1.56092071  1
  Mo  Mo25  1  3.19050814  3.10244922  3.14019648  1
  Mo  Mo26  1  4.73731292  4.73333765  4.72464135  1
  Mo  Mo27  1  3.15067706  3.13704646  6.29409644  1
  Mo  Mo28  1  4.69492734  4.68261657  7.85770762  1
  Mo  Mo29  1  3.21638664  6.33053698  -0.00380832  1
  Mo  Mo30  1  4.77807814  7.90514661  1.57486771  1
  Mo  Mo31  1  3.12994406  6.35551536  3.17558350  1
  Mo  Mo32  1  4.70068067  7.85727624  4.73093031  1
  Mo  Mo33  1  3.14332307  6.33276840  6.38799544  1
  Mo  Mo34  1  4.69156488  7.93212090  7.94498593  1
  Mo  Mo35  1  6.39287094  0.01622203  0.05684774  1
  Mo  Mo36  1  8.00096327  1.52093294  1.52801200  1
  Mo  Mo37  1  6.35900611  -0.06170589  3.18988040  1
  Mo  Mo38  1  7.89036832  1.60094096  4.70101865  1
  Mo  Mo39  1  6.31704467  -0.00919802  6.29399459  1
  Mo  Mo40  1  7.89623055  1.50024599  7.82094238  1
  Mo  Mo41  1  6.32804578  3.16493224  0.03357834  1
  Mo  Mo42  1  7.90604536  4.70141608  1.60626939  1
  Mo  Mo43  1  6.30121891  3.15784716  3.14955549  1
  Mo  Mo44  1  7.89939853  4.79670184  4.72689789  1
  Mo  Mo45  1  6.41512102  3.17684369  6.31055823  1
  Mo  Mo46  1  7.89397277  4.69302235  7.91635471  1
  Mo  Mo47  1  6.30575007  6.28737256  -0.01674577  1
  Mo  Mo48  1  7.94599090  7.94335324  1.52243789  1
  Mo  Mo49  1  6.38425803  6.29199162  3.10466238  1
  Mo  Mo50  1  7.85321376  7.88999359  4.67842846  1
  Mo  Mo51  1  6.30102408  6.27256586  6.30545562  1
  Mo  Mo52  1  7.79212414  7.93296750  7.99190082  1
