# generated using pymatgen
data_Mo
_symmetry_space_group_name_H-M   'P 1'
_cell_length_a   9.46603830
_cell_length_b   9.46603830
_cell_length_c   9.46603730
_cell_angle_alpha   90.00000000
_cell_angle_beta   90.00000000
_cell_angle_gamma   90.00000000
_symmetry_Int_Tables_number   1
_chemical_formula_structural   Mo
_chemical_formula_sum   Mo53
_cell_volume   848.21261229
_cell_formula_units_Z   53
loop_
 _symmetry_equiv_pos_site_id
 _symmetry_equiv_pos_as_xyz
  1  'x, y, z'
loop_
 _atom_site_type_symbol
 _atom_site_label
 _atom_site_symmetry_multiplicity
 _atom_site_fract_x
 _atom_site_fract_y
 _atom_site_fract_z
 _atom_site_occupancy
  Mo  Mo0  1  1.64480714  1.57560670  1.60106045  1
  Mo  Mo1  1  0.00501822  0.06288632  3.15329759  1
  Mo  Mo2  1  1.53106725  1.56753254  4.75274784  1
  Mo  Mo3  1  0.01754078  0.05206210  6.32802341  1
  Mo  Mo4  1  1.57250774  1.53952894  7.87492141  1
  Mo  Mo5  1  0.01980136  3.06553132  0.04472991  1
  Mo  Mo6  1  1.57282165  4.70490164  1.52993150  1
  Mo  Mo7  1  -0.01055741  3.22061988  3.15137605  1
  Mo  Mo8  1  1.58587182  4.77432624  4.79579792  1
  Mo  Mo9  1  -0.06900445  3.13230428  6.32534566  1
  Mo  Mo10  1  1.55882300  4.76378635  7.95119043  1
  Mo  Mo11  1  -0.02786727  6.27421983  -0.00238415  1
  Mo  Mo12  1  1.59050839  7.86950934  1.57042362  1
  Mo  Mo13  1  -0.06465809  6.33963616  3.17607058  1
  Mo  Mo14  1  1.61091682  7.83181257  4.68344458  1
  Mo  Mo15  1  0.03377020  6.31883004  6.29616586  1
  Mo  Mo16  1  1.54049238  7.95054382  7.93910643  1
  Mo  Mo17  1  3.16373207  -0.00177573  -0.00339330  1
  Mo  Mo18  1  4.81415680  1.60327834  1.49595541  1
  Mo  Mo19  1  3.13834532  0.02217196  3.18434181  1
  Mo  Mo20  1  4.73078141  1.57771195  4.63984926  1
  Mo  Mo21  1  3.11502167  -0.02854745  6.28683348  1
  Mo  Mo22  1  4.68780785  1.59989230  7.87677159  1
  Mo  Mo23  1  3.17517030  3.13464944  0.01057133  1
  Mo  Mo24  1  4.74626231  4.76810658  1.56982733  1
  Mo  Mo25  1  3.12668964  3.20160779  3.14970026  1
  Mo  Mo26  1  4.77353044  4.70606185  4.71208811  1
  Mo  Mo27  1  3.16332244  3.19003087  6.28097487  1
  Mo  Mo28  1  4.70347266  4.79117002  7.91705946  1
  Mo  Mo29  1  3.11338636  6.32376276  0.03577168  1
  Mo  Mo30  1  4.72402621  7.92590654  1.57893031  1
  Mo  Mo31  1  3.18995003  6.25268851  3.12007308  1
  Mo  Mo32  1  4.75784051  7.88299790  4.79127482  1
  Mo  Mo33  1  3.20634339  6.30714222  6.24296570  1
  Mo  Mo34  1  4.75786119  7.91723588  7.94180891  1
  Mo  Mo35  1  6.33006478  0.00601623  -0.07749776  1
  Mo  Mo36  1  7.90421724  1.54982003  1.57528362  1
  Mo  Mo37  1  6.25259046  0.01169059  3.08826166  1
  Mo  Mo38  1  7.93320215  1.53566033  4.78114108  1
  Mo  Mo39  1  6.31254325  -0.02168339  6.29087595  1
  Mo  Mo40  1  7.92760168  1.56206879  7.98852687  1
  Mo  Mo41  1  6.27526620  3.11089054  -0.06849684  1
  Mo  Mo42  1  7.92948697  4.72556896  1.56507462  1
  Mo  Mo43  1  6.31178243  3.16621132  3.15076058  1
  Mo  Mo44  1  7.90769683  4.70830639  4.75163094  1
  Mo  Mo45  1  6.17743987  3.14292889  6.23451246  1
  Mo  Mo46  1  7.87156196  4.69820509  7.92120215  1
  Mo  Mo47  1  6.26874873  6.28126470  0.02330933  1
  Mo  Mo48  1  7.93223959  7.88116020  1.61199596  1
  Mo  Mo49  1  6.24557351  6.28324732  3.17883984  1
  Mo  Mo50  1  7.96542034  7.95737690  4.80700267  1
  Mo  Mo51  1  6.28280701  6.32945912  6.29120688  1
  Mo  Mo52  1  7.95805845  7.83993478  7.86957246  1
