# generated using pymatgen
data_Mo
_symmetry_space_group_name_H-M   'P 1'
_cell_length_a   9.46603830
_cell_length_b   9.46603830
_cell_length_c   9.46603730
_cell_angle_alpha   90.00000000
_cell_angle_beta   90.00000000
_cell_angle_gamma   90.00000000
_symmetry_Int_Tables_number   1
_chemical_formula_structural   Mo
_chemical_formula_sum   Mo53
_cell_volume   848.21261229
_cell_formula_units_Z   53
loop_
 _symmetry_equiv_pos_site_id
 _symmetry_equiv_pos_as_xyz
  1  'x, y, z'
loop_
 _atom_site_type_symbol
 _atom_site_label
 _atom_site_symmetry_multiplicity
 _atom_site_fract_x
 _atom_site_fract_y
 _atom_site_fract_z
 _atom_site_occupancy
  Mo  Mo0  1  1.47706446  1.55097837  1.47252333  1
  Mo  Mo1  1  0.02841306  -0.01279880  3.13588930  1
  Mo  Mo2  1  1.54104961  1.50416037  4.62439270  1
  Mo  Mo3  1  0.01637382  -0.00931653  6.32539771  1
  Mo  Mo4  1  1.51944903  1.57217026  7.89034396  1
  Mo  Mo5  1  0.05903702  3.16835987  0.00374403  1
  Mo  Mo6  1  1.60974520  4.74905853  1.51337238  1
  Mo  Mo7  1  0.00362684  3.11264824  3.13384727  1
  Mo  Mo8  1  1.53207935  4.72062234  4.70005035  1
  Mo  Mo9  1  0.08212366  3.13719294  6.28102582  1
  Mo  Mo10  1  1.51639469  4.76205730  7.89450291  1
  Mo  Mo11  1  0.00898214  6.35110964  -0.02427078  1
  Mo  Mo12  1  1.57627943  7.93670042  1.54665238  1
  Mo  Mo13  1  0.05341450  6.28305329  3.16550896  1
  Mo  Mo14  1  1.52902419  7.94201393  4.77106323  1
  Mo  Mo15  1  -0.03507996  6.34615301  6.33280617  1
  Mo  Mo16  1  1.58125854  7.88492525  7.87039752  1
  Mo  Mo17  1  3.15309186  0.00734167  -0.00693735  1
  Mo  Mo18  1  4.69500280  1.47937878  1.59206270  1
  Mo  Mo19  1  3.14165306  -0.03234673  3.17839355  1
  Mo  Mo20  1  4.75024505  1.61002057  4.77234336  1
  Mo  Mo21  1  3.20161648  0.01060116  6.40622091  1
  Mo  Mo22  1  4.74440980  1.53399811  7.99640212  1
  Mo  Mo23  1  3.19828329  3.16547115  0.02599261  1
  Mo  Mo24  1  4.70576891  4.70751495  1.55210968  1
  Mo  Mo25  1  3.14941837  3.14915159  3.18891419  1
  Mo  Mo26  1  4.64775517  4.81436321  4.74720871  1
  Mo  Mo27  1  3.24840143  3.17542502  6.31490849  1
  Mo  Mo28  1  4.75072119  4.69714129  7.90191972  1
  Mo  Mo29  1  3.16392807  6.30140340  -0.02569756  1
  Mo  Mo30  1  4.69534450  7.86499930  1.50418833  1
  Mo  Mo31  1  3.19915537  6.30631123  3.19335442  1
  Mo  Mo32  1  4.72883002  7.93209499  4.73423602  1
  Mo  Mo33  1  3.12806886  6.27663055  6.32690558  1
  Mo  Mo34  1  4.71559778  7.87791569  7.85899882  1
  Mo  Mo35  1  6.31085643  0.03574770  0.03022737  1
  Mo  Mo36  1  7.94396007  1.52499951  1.55615921  1
  Mo  Mo37  1  6.32483332  0.00417796  3.16035365  1
  Mo  Mo38  1  7.85855306  1.47370611  4.72758953  1
  Mo  Mo39  1  6.34576211  -0.03344791  6.32167199  1
  Mo  Mo40  1  7.86337064  1.56671719  7.88377668  1
  Mo  Mo41  1  6.33678232  3.17416401  0.04793838  1
  Mo  Mo42  1  7.98212413  4.71876608  1.54687775  1
  Mo  Mo43  1  6.26991414  3.19518920  3.23342089  1
  Mo  Mo44  1  7.89012078  4.74264713  4.71650890  1
  Mo  Mo45  1  6.35964021  3.24822854  6.31610899  1
  Mo  Mo46  1  7.87960238  4.79783350  7.95601350  1
  Mo  Mo47  1  6.31551466  6.34893215  -0.01102493  1
  Mo  Mo48  1  7.87367293  7.90555038  1.53855029  1
  Mo  Mo49  1  6.28034380  6.26432041  3.16148752  1
  Mo  Mo50  1  7.92046332  7.85853583  4.69616740  1
  Mo  Mo51  1  6.26563556  6.32697702  6.31953140  1
  Mo  Mo52  1  7.84818406  7.95630746  7.88572558  1
