# generated using pymatgen
data_Mo
_symmetry_space_group_name_H-M   'P 1'
_cell_length_a   9.46603830
_cell_length_b   9.46603830
_cell_length_c   9.46603730
_cell_angle_alpha   90.00000000
_cell_angle_beta   90.00000000
_cell_angle_gamma   90.00000000
_symmetry_Int_Tables_number   1
_chemical_formula_structural   Mo
_chemical_formula_sum   Mo53
_cell_volume   848.21261229
_cell_formula_units_Z   53
loop_
 _symmetry_equiv_pos_site_id
 _symmetry_equiv_pos_as_xyz
  1  'x, y, z'
loop_
 _atom_site_type_symbol
 _atom_site_label
 _atom_site_symmetry_multiplicity
 _atom_site_fract_x
 _atom_site_fract_y
 _atom_site_fract_z
 _atom_site_occupancy
  Mo  Mo0  1  1.48583956  1.50841304  1.51018968  1
  Mo  Mo1  1  -0.03687294  -0.05285336  3.11027301  1
  Mo  Mo2  1  1.52859169  1.61567168  4.77005694  1
  Mo  Mo3  1  -0.01209305  -0.01220705  6.37097877  1
  Mo  Mo4  1  1.49409669  1.57625229  7.87378678  1
  Mo  Mo5  1  -0.03173324  3.15566934  -0.09428607  1
  Mo  Mo6  1  1.59844956  4.71253982  1.50754645  1
  Mo  Mo7  1  0.07347398  3.24769272  3.11585950  1
  Mo  Mo8  1  1.62470888  4.80331602  4.74845122  1
  Mo  Mo9  1  -0.00185734  3.16955029  6.21830978  1
  Mo  Mo10  1  1.57372816  4.71743866  7.84564275  1
  Mo  Mo11  1  0.00603904  6.33701950  0.03978572  1
  Mo  Mo12  1  1.60613192  7.90732061  1.51504595  1
  Mo  Mo13  1  -0.01510735  6.33825406  3.19570192  1
  Mo  Mo14  1  1.59917977  7.88842850  4.68897593  1
  Mo  Mo15  1  0.01147607  6.26067871  6.35202143  1
  Mo  Mo16  1  1.50258217  7.98815276  7.92724901  1
  Mo  Mo17  1  3.10050425  -0.00496210  0.03438520  1
  Mo  Mo18  1  4.72107155  1.59066462  1.66635471  1
  Mo  Mo19  1  3.14009346  0.05291006  3.22405026  1
  Mo  Mo20  1  4.71168830  1.50827559  4.75250771  1
  Mo  Mo21  1  3.13986825  0.01857119  6.30059358  1
  Mo  Mo22  1  4.69557262  1.60407839  7.95789284  1
  Mo  Mo23  1  3.15306509  3.07950665  0.02112474  1
  Mo  Mo24  1  4.76689445  4.70370630  1.61052901  1
  Mo  Mo25  1  3.15007024  3.17877964  3.16270032  1
  Mo  Mo26  1  4.80990340  4.68856384  4.72167658  1
  Mo  Mo27  1  3.17263475  3.15187755  6.30200025  1
  Mo  Mo28  1  4.70875598  4.75491167  7.95523186  1
  Mo  Mo29  1  3.17662209  6.26269530  0.02581478  1
  Mo  Mo30  1  4.76427032  7.95138462  1.51333910  1
  Mo  Mo31  1  3.15305517  6.33170841  3.09062818  1
  Mo  Mo32  1  4.70270424  7.90565726  4.72505795  1
  Mo  Mo33  1  3.18951760  6.33925550  6.30594406  1
  Mo  Mo34  1  4.76774574  7.95040355  7.91471145  1
  Mo  Mo35  1  6.36544407  0.01766741  -0.03805183  1
  Mo  Mo36  1  7.87525525  1.53985479  1.60702164  1
  Mo  Mo37  1  6.24803623  -0.05479094  3.12005310  1
  Mo  Mo38  1  7.93029678  1.46806823  4.75861367  1
  Mo  Mo39  1  6.29520969  0.01502253  6.30361739  1
  Mo  Mo40  1  7.89539681  1.60196854  7.93847429  1
  Mo  Mo41  1  6.31762016  3.17317668  0.02481245  1
  Mo  Mo42  1  7.92846919  4.74725768  1.57567657  1
  Mo  Mo43  1  6.36726526  3.13230950  3.17257751  1
  Mo  Mo44  1  7.93876392  4.71744236  4.73681450  1
  Mo  Mo45  1  6.29779819  3.14352245  6.28074680  1
  Mo  Mo46  1  7.85363375  4.72648718  7.88919431  1
  Mo  Mo47  1  6.25858321  6.27417857  0.02579105  1
  Mo  Mo48  1  7.95745079  7.86804729  1.50087834  1
  Mo  Mo49  1  6.30279825  6.29832470  3.10869246  1
  Mo  Mo50  1  7.89142074  7.86938802  4.75882350  1
  Mo  Mo51  1  6.28323772  6.30871873  6.25875213  1
  Mo  Mo52  1  7.94851048  7.90988729  7.98323636  1
