# generated using pymatgen
data_Mo
_symmetry_space_group_name_H-M   'P 1'
_cell_length_a   9.46603830
_cell_length_b   9.46603830
_cell_length_c   9.46603730
_cell_angle_alpha   90.00000000
_cell_angle_beta   90.00000000
_cell_angle_gamma   90.00000000
_symmetry_Int_Tables_number   1
_chemical_formula_structural   Mo
_chemical_formula_sum   Mo53
_cell_volume   848.21261229
_cell_formula_units_Z   53
loop_
 _symmetry_equiv_pos_site_id
 _symmetry_equiv_pos_as_xyz
  1  'x, y, z'
loop_
 _atom_site_type_symbol
 _atom_site_label
 _atom_site_symmetry_multiplicity
 _atom_site_fract_x
 _atom_site_fract_y
 _atom_site_fract_z
 _atom_site_occupancy
  Mo  Mo0  1  1.56358722  1.56455932  1.64220886  1
  Mo  Mo1  1  -0.04724396  0.06424830  3.14369175  1
  Mo  Mo2  1  1.50413670  1.65092315  4.74972227  1
  Mo  Mo3  1  -0.03243971  -0.03654807  6.30860802  1
  Mo  Mo4  1  1.54870296  1.61398693  7.95308781  1
  Mo  Mo5  1  -0.03243351  3.09026904  0.00682901  1
  Mo  Mo6  1  1.57237218  4.69437654  1.54761171  1
  Mo  Mo7  1  -0.02101892  3.18246252  3.12513448  1
  Mo  Mo8  1  1.62505429  4.77804919  4.66815827  1
  Mo  Mo9  1  -0.03913971  3.17315539  6.29810538  1
  Mo  Mo10  1  1.51309519  4.75910118  7.90502081  1
  Mo  Mo11  1  -0.00454852  6.25862926  -0.01387751  1
  Mo  Mo12  1  1.60522802  7.88066391  1.58807474  1
  Mo  Mo13  1  -0.02612581  6.33789313  3.16572393  1
  Mo  Mo14  1  1.56279508  8.02415529  4.76417685  1
  Mo  Mo15  1  0.01917482  6.28195830  6.31921639  1
  Mo  Mo16  1  1.61335426  7.90701549  7.89707998  1
  Mo  Mo17  1  3.13431256  -0.00550879  -0.00428212  1
  Mo  Mo18  1  4.73353703  1.51309654  1.56384368  1
  Mo  Mo19  1  3.05490662  -0.01543338  3.09963702  1
  Mo  Mo20  1  4.70809423  1.58750178  4.77713585  1
  Mo  Mo21  1  3.16126301  -0.04501467  6.28950483  1
  Mo  Mo22  1  4.71768489  1.59702631  7.93080896  1
  Mo  Mo23  1  3.11708668  3.14223807  -0.02453525  1
  Mo  Mo24  1  4.76233271  4.72537283  1.55991778  1
  Mo  Mo25  1  3.21779746  3.17258229  3.16487051  1
  Mo  Mo26  1  4.78383586  4.69415004  4.72948665  1
  Mo  Mo27  1  3.09691345  3.18788610  6.28559472  1
  Mo  Mo28  1  4.69533143  4.75901845  7.85854980  1
  Mo  Mo29  1  3.13760341  6.25816812  -0.01565483  1
  Mo  Mo30  1  4.77069374  7.88829249  1.54982573  1
  Mo  Mo31  1  3.17657102  6.28775322  3.17120384  1
  Mo  Mo32  1  4.79564044  7.86197287  4.67451212  1
  Mo  Mo33  1  3.19701258  6.33646334  6.30469603  1
  Mo  Mo34  1  4.74237009  8.00421219  7.88330138  1
  Mo  Mo35  1  6.34055747  0.01854689  -0.00366922  1
  Mo  Mo36  1  7.92507830  1.56465374  1.61756099  1
  Mo  Mo37  1  6.28143212  0.04294776  3.16028356  1
  Mo  Mo38  1  7.90481990  1.56553200  4.72635539  1
  Mo  Mo39  1  6.31963697  -0.05618734  6.24708035  1
  Mo  Mo40  1  7.86542495  1.52657132  7.90283075  1
  Mo  Mo41  1  6.25985401  3.20273163  -0.07888280  1
  Mo  Mo42  1  7.93450650  4.72597840  1.61007305  1
  Mo  Mo43  1  6.33145075  3.12937007  3.10734522  1
  Mo  Mo44  1  7.90847659  4.71129901  4.77666262  1
  Mo  Mo45  1  6.28583037  3.08269428  6.31180753  1
  Mo  Mo46  1  7.86501991  4.72654775  7.95014438  1
  Mo  Mo47  1  6.30806059  6.35800649  -0.06678896  1
  Mo  Mo48  1  7.93026859  7.89595593  1.58977147  1
  Mo  Mo49  1  6.33229222  6.33080587  3.19724559  1
  Mo  Mo50  1  7.94828614  7.86648016  4.79193847  1
  Mo  Mo51  1  6.34357130  6.24525691  6.33952659  1
  Mo  Mo52  1  7.97375716  7.87398906  7.93958119  1
