# generated using pymatgen
data_Mo
_symmetry_space_group_name_H-M   'P 1'
_cell_length_a   9.46603830
_cell_length_b   9.46603830
_cell_length_c   9.46603730
_cell_angle_alpha   90.00000000
_cell_angle_beta   90.00000000
_cell_angle_gamma   90.00000000
_symmetry_Int_Tables_number   1
_chemical_formula_structural   Mo
_chemical_formula_sum   Mo53
_cell_volume   848.21261229
_cell_formula_units_Z   53
loop_
 _symmetry_equiv_pos_site_id
 _symmetry_equiv_pos_as_xyz
  1  'x, y, z'
loop_
 _atom_site_type_symbol
 _atom_site_label
 _atom_site_symmetry_multiplicity
 _atom_site_fract_x
 _atom_site_fract_y
 _atom_site_fract_z
 _atom_site_occupancy
  Mo  Mo0  1  1.55496857  1.53359742  1.47062590  1
  Mo  Mo1  1  0.02660944  -0.01282235  3.09865725  1
  Mo  Mo2  1  1.54135264  1.56420883  4.71576646  1
  Mo  Mo3  1  0.08842002  0.00449430  6.38550591  1
  Mo  Mo4  1  1.58191997  1.56541876  7.88791055  1
  Mo  Mo5  1  0.04013569  3.16538857  -0.00334821  1
  Mo  Mo6  1  1.57972939  4.74039868  1.53313460  1
  Mo  Mo7  1  0.01495493  3.16788334  3.18206295  1
  Mo  Mo8  1  1.50859506  4.69053744  4.77383387  1
  Mo  Mo9  1  0.03321405  3.12022586  6.35721376  1
  Mo  Mo10  1  1.51239313  4.71605434  7.87656993  1
  Mo  Mo11  1  -0.01966673  6.45053448  0.05098451  1
  Mo  Mo12  1  1.56602761  7.90629549  1.51945758  1
  Mo  Mo13  1  0.00935555  6.31772744  3.19027250  1
  Mo  Mo14  1  1.59409069  7.85656411  4.67302053  1
  Mo  Mo15  1  -0.03300666  6.31386524  6.33971278  1
  Mo  Mo16  1  1.52467478  7.90229154  7.82233192  1
  Mo  Mo17  1  3.12288553  -0.04605093  0.03870862  1
  Mo  Mo18  1  4.71773420  1.54446555  1.54164955  1
  Mo  Mo19  1  3.23146077  0.00342988  3.24023865  1
  Mo  Mo20  1  4.71392527  1.54757483  4.70112233  1
  Mo  Mo21  1  3.24019238  0.03322561  6.33702598  1
  Mo  Mo22  1  4.75207951  1.57235089  7.86524954  1
  Mo  Mo23  1  3.23457175  3.15790966  0.01624294  1
  Mo  Mo24  1  4.73152825  4.71301411  1.53666364  1
  Mo  Mo25  1  3.11185430  3.15566243  3.14728347  1
  Mo  Mo26  1  4.65073745  4.73517706  4.71459879  1
  Mo  Mo27  1  3.22282787  3.13473286  6.31203829  1
  Mo  Mo28  1  4.73108502  4.74305346  7.91505880  1
  Mo  Mo29  1  3.13428026  6.31950581  0.00957377  1
  Mo  Mo30  1  4.73480153  7.88773336  1.56561696  1
  Mo  Mo31  1  3.14185146  6.31383480  3.15236354  1
  Mo  Mo32  1  4.70152500  7.90069945  4.74736704  1
  Mo  Mo33  1  3.11215469  6.28495389  6.30306000  1
  Mo  Mo34  1  4.75454494  7.86694130  7.89666689  1
  Mo  Mo35  1  6.32570540  -0.04692883  -0.01115997  1
  Mo  Mo36  1  7.85737973  1.52578085  1.54127569  1
  Mo  Mo37  1  6.27475055  -0.02938653  3.13336651  1
  Mo  Mo38  1  7.82037442  1.53003304  4.75388734  1
  Mo  Mo39  1  6.33286785  0.07983733  6.32719349  1
  Mo  Mo40  1  7.90385632  1.58671474  7.95482650  1
  Mo  Mo41  1  6.36745860  3.17220395  0.03490114  1
  Mo  Mo42  1  7.92475871  4.71082128  1.55977274  1
  Mo  Mo43  1  6.25610340  3.18065720  3.16371074  1
  Mo  Mo44  1  7.87819417  4.74382855  4.75765047  1
  Mo  Mo45  1  6.29444726  3.21334998  6.28696240  1
  Mo  Mo46  1  7.89795689  4.74437995  7.94656592  1
  Mo  Mo47  1  6.29202280  6.29567932  0.03522123  1
  Mo  Mo48  1  7.92530820  7.88631802  1.58792443  1
  Mo  Mo49  1  6.30141111  6.30715856  3.14513370  1
  Mo  Mo50  1  7.94159225  7.92692906  4.70111691  1
  Mo  Mo51  1  6.32354104  6.33686741  6.25738442  1
  Mo  Mo52  1  7.90432456  7.95073524  7.89588035  1
