# generated using pymatgen
data_Mo
_symmetry_space_group_name_H-M   'P 1'
_cell_length_a   9.44236900
_cell_length_b   9.44236900
_cell_length_c   9.44236900
_cell_angle_alpha   90.00000000
_cell_angle_beta   90.00000000
_cell_angle_gamma   90.00000000
_symmetry_Int_Tables_number   1
_chemical_formula_structural   Mo
_chemical_formula_sum   Mo53
_cell_volume   841.86587335
_cell_formula_units_Z   53
loop_
 _symmetry_equiv_pos_site_id
 _symmetry_equiv_pos_as_xyz
  1  'x, y, z'
loop_
 _atom_site_type_symbol
 _atom_site_label
 _atom_site_symmetry_multiplicity
 _atom_site_fract_x
 _atom_site_fract_y
 _atom_site_fract_z
 _atom_site_occupancy
  Mo  Mo0  1  1.57848925  1.64435981  1.56922269  1
  Mo  Mo1  1  0.03426569  -0.02451943  3.07832125  1
  Mo  Mo2  1  1.49982786  1.60570697  4.73837062  1
  Mo  Mo3  1  -0.07426026  -0.01437635  6.42262258  1
  Mo  Mo4  1  1.54945760  1.52268759  7.89628444  1
  Mo  Mo5  1  0.04892041  3.10123140  -0.02136457  1
  Mo  Mo6  1  1.52608563  4.76049232  1.54354723  1
  Mo  Mo7  1  0.00696867  3.11332729  3.21547585  1
  Mo  Mo8  1  1.59586438  4.75403024  4.75123257  1
  Mo  Mo9  1  0.00529769  3.12517880  6.31586485  1
  Mo  Mo10  1  1.59163561  4.71178465  7.90091284  1
  Mo  Mo11  1  0.02306525  6.40969151  0.00534397  1
  Mo  Mo12  1  1.56543166  7.94021958  1.56645115  1
  Mo  Mo13  1  0.04007864  6.27453964  3.16751822  1
  Mo  Mo14  1  1.55161522  7.91502667  4.74043020  1
  Mo  Mo15  1  0.00910742  6.26536230  6.30090349  1
  Mo  Mo16  1  1.47975589  7.91461909  7.94433428  1
  Mo  Mo17  1  3.12077597  0.00510712  -0.01576566  1
  Mo  Mo18  1  4.71377443  1.58184925  1.53729447  1
  Mo  Mo19  1  3.16433918  -0.05039587  3.20024646  1
  Mo  Mo20  1  4.67708928  1.53725397  4.73198277  1
  Mo  Mo21  1  3.05854185  0.02490751  6.27145178  1
  Mo  Mo22  1  4.71777755  1.59572805  7.87400477  1
  Mo  Mo23  1  3.19358147  3.21979763  -0.07488966  1
  Mo  Mo24  1  4.65758993  4.71608655  1.53265115  1
  Mo  Mo25  1  3.18013046  3.16056902  3.12183217  1
  Mo  Mo26  1  4.75419054  4.70110763  4.64908267  1
  Mo  Mo27  1  3.17462445  3.17092427  6.25575018  1
  Mo  Mo28  1  4.75643869  4.74166662  7.80872896  1
  Mo  Mo29  1  3.11230511  6.32389501  -0.04645934  1
  Mo  Mo30  1  4.70886638  7.90086543  1.59126300  1
  Mo  Mo31  1  3.18988587  6.31314289  3.17336195  1
  Mo  Mo32  1  4.76025537  7.85075054  4.76972468  1
  Mo  Mo33  1  3.17245548  6.32084868  6.29029922  1
  Mo  Mo34  1  4.63588736  7.92066271  7.92815848  1
  Mo  Mo35  1  6.34779834  0.01828672  -0.03984253  1
  Mo  Mo36  1  7.91013772  1.50644490  1.49486137  1
  Mo  Mo37  1  6.30297725  -0.06037850  3.16508301  1
  Mo  Mo38  1  7.85130149  1.52055923  4.67130080  1
  Mo  Mo39  1  6.22474878  -0.01051622  6.23244562  1
  Mo  Mo40  1  7.89632214  1.54154802  7.92393341  1
  Mo  Mo41  1  6.30801435  3.19905050  -0.03072548  1
  Mo  Mo42  1  7.82865132  4.67167279  1.57051245  1
  Mo  Mo43  1  6.32103830  3.08063496  3.16905663  1
  Mo  Mo44  1  7.91672371  4.66243012  4.74380598  1
  Mo  Mo45  1  6.33887560  3.14256851  6.29828420  1
  Mo  Mo46  1  7.90869337  4.70658061  7.90516168  1
  Mo  Mo47  1  6.25199137  6.32994810  -0.02170199  1
  Mo  Mo48  1  7.96471683  7.92530402  1.57047378  1
  Mo  Mo49  1  6.24528501  6.26032409  3.14908706  1
  Mo  Mo50  1  7.88370579  7.75619101  4.73000004  1
  Mo  Mo51  1  6.29833149  6.29213898  6.30050459  1
  Mo  Mo52  1  7.87387858  7.85639540  7.88687706  1
