# generated using pymatgen
data_Mo
_symmetry_space_group_name_H-M   'P 1'
_cell_length_a   9.51792613
_cell_length_b   12.67005017
_cell_length_c   15.85982510
_cell_angle_alpha   90.00000000
_cell_angle_beta   90.00000000
_cell_angle_gamma   90.00000000
_symmetry_Int_Tables_number   1
_chemical_formula_structural   Mo
_chemical_formula_sum   Mo121
_cell_volume   1912.57756954
_cell_formula_units_Z   121
loop_
 _symmetry_equiv_pos_site_id
 _symmetry_equiv_pos_as_xyz
  1  'x, y, z'
loop_
 _atom_site_type_symbol
 _atom_site_label
 _atom_site_symmetry_multiplicity
 _atom_site_fract_x
 _atom_site_fract_y
 _atom_site_fract_z
 _atom_site_occupancy
  Mo  Mo0  1  1.52050390  1.59194569  4.74106444  1
  Mo  Mo1  1  1.61783156  4.73991263  1.55249632  1
  Mo  Mo2  1  2.26577243  1.29697398  1.16448643  1
  Mo  Mo3  1  3.19509172  -0.09559052  3.27712815  1
  Mo  Mo4  1  3.13037210  -0.05538134  6.39868297  1
  Mo  Mo5  1  3.08285015  3.25599846  3.15105497  1
  Mo  Mo6  1  0.44440870  2.24305404  2.20643453  1
  Mo  Mo7  1  3.01420843  3.12033351  6.23452074  1
  Mo  Mo8  1  1.57135219  4.87434634  4.69194386  1
  Mo  Mo9  1  4.74298081  4.69647165  1.55773902  1
  Mo  Mo10  1  4.61962827  4.61725516  4.62079001  1
  Mo  Mo11  1  4.68288827  1.45809782  4.64609004  1
  Mo  Mo12  1  3.18402047  6.36916296  3.06818447  1
  Mo  Mo13  1  4.72352918  1.53113825  7.94072366  1
  Mo  Mo14  1  0.04510912  -0.09370771  -0.01894295  1
  Mo  Mo15  1  1.56534492  1.59516281  7.85257074  1
  Mo  Mo16  1  1.68085325  1.63888181  11.04215166  1
  Mo  Mo17  1  1.48065734  4.79882357  7.85302749  1
  Mo  Mo18  1  -0.06592226  3.15146208  9.39388659  1
  Mo  Mo19  1  1.62719495  4.79728452  10.98247616  1
  Mo  Mo20  1  4.84375396  4.85901539  11.06508849  1
  Mo  Mo21  1  3.14644774  3.19857692  9.39332062  1
  Mo  Mo22  1  0.03855663  3.22470109  12.54784094  1
  Mo  Mo23  1  4.82004263  4.82133345  14.29342373  1
  Mo  Mo24  1  3.21293479  3.13798792  12.64852472  1
  Mo  Mo25  1  1.74160112  1.62074086  14.18271129  1
  Mo  Mo26  1  1.66830253  4.69198358  14.21468385  1
  Mo  Mo27  1  3.13507862  6.33046822  15.84687327  1
  Mo  Mo28  1  4.80947778  1.62320334  11.14829659  1
  Mo  Mo29  1  -0.02691137  6.33938479  9.48259556  1
  Mo  Mo30  1  3.24436124  -0.09361050  12.68228457  1
  Mo  Mo31  1  3.29638119  3.30220973  15.82195056  1
  Mo  Mo32  1  1.58124184  7.93527244  1.57079614  1
  Mo  Mo33  1  1.61421727  10.99141259  1.61602441  1
  Mo  Mo34  1  -0.00040220  9.42995005  3.08688147  1
  Mo  Mo35  1  3.16183826  9.56667744  3.06117434  1
  Mo  Mo36  1  3.12003563  9.48745102  6.34019900  1
  Mo  Mo37  1  3.02200298  6.34651407  6.25860938  1
  Mo  Mo38  1  -0.03369064  12.54754305  3.12003563  1
  Mo  Mo39  1  1.46601153  11.08494723  4.82502717  1
  Mo  Mo40  1  4.79308439  7.84327685  1.54136550  1
  Mo  Mo41  1  4.80957707  10.99051895  4.74107437  1
  Mo  Mo42  1  1.49621666  8.06661811  4.76719853  1
  Mo  Mo43  1  -0.13975386  6.34374378  6.28770243  1
  Mo  Mo44  1  1.54757135  11.06538638  7.96029445  1
  Mo  Mo45  1  0.00939905  9.45665012  0.00038039  1
  Mo  Mo46  1  3.17074491  9.47471164  -0.04513017  1
  Mo  Mo47  1  1.55600138  7.84068529  7.86060360  1
  Mo  Mo48  1  3.34782525  6.34646443  12.64048193  1
  Mo  Mo49  1  1.57761762  7.91403352  11.05059162  1
  Mo  Mo50  1  -0.04447513  9.52518261  9.54920175  1
  Mo  Mo51  1  1.63777965  11.01037768  11.10093351  1
  Mo  Mo52  1  3.18041611  6.28810953  9.51065595  1
  Mo  Mo53  1  3.12744294  9.54637189  9.50857078  1
  Mo  Mo54  1  3.21302415  9.39589232  12.62032532  1
  Mo  Mo55  1  4.68654228  7.90341903  7.83207652  1
  Mo  Mo56  1  4.80270595  7.93157872  10.97761077  1
  Mo  Mo57  1  3.24612866  12.72031405  9.54435622  1
  Mo  Mo58  1  3.24510594  12.39890042  15.60648328  1
  Mo  Mo59  1  0.06853627  12.66947569  12.68397256  1
  Mo  Mo60  1  1.54393720  10.97066021  14.23315247  1
  Mo  Mo61  1  1.63862365  7.79727409  14.28984916  1
  Mo  Mo62  1  4.76815175  11.08842251  7.92087486  1
  Mo  Mo63  1  7.48780550  4.80783943  5.01604834  1
  Mo  Mo64  1  9.09541973  3.76235648  3.67193966  1
  Mo  Mo65  1  7.68594602  1.49492585  1.46183126  1
  Mo  Mo66  1  6.35659238  -0.18198743  3.23512693  1
  Mo  Mo67  1  9.51618661  6.41362667  3.16331774  1
  Mo  Mo68  1  7.86260933  4.76416015  1.59571885  1
  Mo  Mo69  1  6.34710984  3.04589304  3.22634936  1
  Mo  Mo70  1  9.48366793  0.00760518  6.29536790  1
  Mo  Mo71  1  9.53677019  3.15760835  6.28602437  1
  Mo  Mo72  1  6.23058871  3.07528397  6.39384737  1
  Mo  Mo73  1  7.90467013  1.57635659  4.84517386  1
  Mo  Mo74  1  4.80937849  1.47259470  1.57528422  1
  Mo  Mo75  1  7.88396740  4.73811542  8.03913362  1
  Mo  Mo76  1  6.31160242  6.28962873  15.78531119  1
  Mo  Mo77  1  6.39677653  6.48317196  12.67185873  1
  Mo  Mo78  1  7.89037184  1.51585695  7.85341474  1
  Mo  Mo79  1  8.00917672  1.55792768  11.03311593  1
  Mo  Mo80  1  9.54296611  0.00616130  9.50091524  1
  Mo  Mo81  1  6.35116102  3.19530023  9.45955943  1
  Mo  Mo82  1  7.95468435  4.80408613  11.01812259  1
  Mo  Mo83  1  7.90165160  4.76681129  14.26860031  1
  Mo  Mo84  1  6.34449841  3.32538488  12.63700666  1
  Mo  Mo85  1  7.85201469  1.56782726  14.13981642  1
  Mo  Mo86  1  4.73535505  1.60545956  14.23543623  1
  Mo  Mo87  1  4.67203548  4.70630172  7.86340368  1
  Mo  Mo88  1  9.50428130  6.38753229  12.64594309  1
  Mo  Mo89  1  6.30945767  6.36786221  9.36215233  1
  Mo  Mo90  1  6.39710420  -0.12627673  9.42032849  1
  Mo  Mo91  1  6.41440116  0.01627274  12.58785629  1
  Mo  Mo92  1  6.29926021  3.12509960  15.87636349  1
  Mo  Mo93  1  9.54231077  3.16339717  15.60350447  1
  Mo  Mo94  1  7.95070268  11.05198173  8.04564729  1
  Mo  Mo95  1  4.79381917  10.95596475  1.52677926  1
  Mo  Mo96  1  4.56724093  7.88842569  4.72799739  1
  Mo  Mo97  1  7.94139886  7.87256849  1.52304581  1
  Mo  Mo98  1  6.26535142  6.25389293  3.15796581  1
  Mo  Mo99  1  7.96046325  11.07740091  1.54403650  1
  Mo  Mo100  1  6.34518354  9.42253281  3.10602529  1
  Mo  Mo101  1  9.51337660  9.56590295  6.37520995  1
  Mo  Mo102  1  6.39914965  12.59957294  6.36728631  1
  Mo  Mo103  1  6.32856178  9.48572331  6.35038653  1
  Mo  Mo104  1  7.97574454  11.00511512  4.75754719  1
  Mo  Mo105  1  7.80420479  7.87988643  4.68230244  1
  Mo  Mo106  1  6.14595078  6.41420257  6.36507206  1
  Mo  Mo107  1  6.28214198  12.60503409  -0.11770967  1
  Mo  Mo108  1  6.41073722  9.35849832  -0.01317577  1
  Mo  Mo109  1  7.90307150  7.95738514  7.84662305  1
  Mo  Mo110  1  9.59019018  9.45580612  12.69459699  1
  Mo  Mo111  1  7.96120795  7.95851709  11.10450808  1
  Mo  Mo112  1  6.27830925  9.45181452  9.58129347  1
  Mo  Mo113  1  7.98694487  11.08315994  11.13012585  1
  Mo  Mo114  1  4.78289686  7.94694938  14.31417611  1
  Mo  Mo115  1  8.02469632  11.07223764  14.31070083  1
  Mo  Mo116  1  6.41998146  9.49655625  12.76499620  1
  Mo  Mo117  1  7.92337706  7.84800323  14.29670042  1
  Mo  Mo118  1  4.94664206  11.08603946  14.24288325  1
  Mo  Mo119  1  9.60673251  6.25329717  15.88192394  1
  Mo  Mo120  1  4.81168210  11.06538638  11.09269214  1
