# generated using pymatgen
data_Mo
_symmetry_space_group_name_H-M   'P 1'
_cell_length_a   9.44236900
_cell_length_b   9.44236900
_cell_length_c   9.44236900
_cell_angle_alpha   90.00000000
_cell_angle_beta   90.00000000
_cell_angle_gamma   90.00000000
_symmetry_Int_Tables_number   1
_chemical_formula_structural   Mo
_chemical_formula_sum   Mo53
_cell_volume   841.86587335
_cell_formula_units_Z   53
loop_
 _symmetry_equiv_pos_site_id
 _symmetry_equiv_pos_as_xyz
  1  'x, y, z'
loop_
 _atom_site_type_symbol
 _atom_site_label
 _atom_site_symmetry_multiplicity
 _atom_site_fract_x
 _atom_site_fract_y
 _atom_site_fract_z
 _atom_site_occupancy
  Mo  Mo0  1  1.57544074  1.56476503  1.56292430  1
  Mo  Mo1  1  -0.01358034  -0.00011742  3.23063405  1
  Mo  Mo2  1  1.57234271  1.60152895  4.75571093  1
  Mo  Mo3  1  0.04064752  0.03905220  6.25999298  1
  Mo  Mo4  1  1.55392424  1.54124677  7.98018729  1
  Mo  Mo5  1  -0.03109681  3.15821625  0.03821684  1
  Mo  Mo6  1  1.50968206  4.69787907  1.54705923  1
  Mo  Mo7  1  0.00584153  3.14717439  3.18907602  1
  Mo  Mo8  1  1.56012015  4.77054059  4.69139898  1
  Mo  Mo9  1  0.00702146  3.17175980  6.36074734  1
  Mo  Mo10  1  1.53665944  4.70663449  7.87069730  1
  Mo  Mo11  1  -0.04034849  6.29072387  -0.03491977  1
  Mo  Mo12  1  1.52888887  7.88420055  1.53577744  1
  Mo  Mo13  1  -0.02245022  6.30122048  3.10553529  1
  Mo  Mo14  1  1.61602647  7.94104377  4.70628498  1
  Mo  Mo15  1  0.02052985  6.35549039  6.24487791  1
  Mo  Mo16  1  1.66575252  7.85585225  7.88454381  1
  Mo  Mo17  1  3.15320902  -0.01448974  0.01438538  1
  Mo  Mo18  1  4.69119846  1.57494593  1.50846042  1
  Mo  Mo19  1  3.18009599  -0.03931622  3.12840874  1
  Mo  Mo20  1  4.70642662  1.60193460  4.68011971  1
  Mo  Mo21  1  3.20080067  0.03123439  6.28725830  1
  Mo  Mo22  1  4.67176933  1.53207692  7.83740147  1
  Mo  Mo23  1  3.17391986  3.11204809  -0.00928019  1
  Mo  Mo24  1  4.74781000  4.72624111  1.57970456  1
  Mo  Mo25  1  3.14106843  3.10903542  3.14748873  1
  Mo  Mo26  1  4.69987748  4.71747297  4.75707762  1
  Mo  Mo27  1  3.11730522  3.16313379  6.25408416  1
  Mo  Mo28  1  4.66651378  4.65426800  7.90707970  1
  Mo  Mo29  1  3.17664669  6.23635223  0.06151765  1
  Mo  Mo30  1  4.69914655  7.89343270  1.56422914  1
  Mo  Mo31  1  3.14642200  6.26887608  3.18218766  1
  Mo  Mo32  1  4.71716850  7.89266929  4.75973310  1
  Mo  Mo33  1  3.12811640  6.30587034  6.30711152  1
  Mo  Mo34  1  4.71467744  7.80231605  7.90969566  1
  Mo  Mo35  1  6.27868555  -0.00805443  -0.00851191  1
  Mo  Mo36  1  7.77100789  1.57346095  1.53509749  1
  Mo  Mo37  1  6.33545494  0.00683423  3.16971321  1
  Mo  Mo38  1  7.89194067  1.55335470  4.79918879  1
  Mo  Mo39  1  6.32852674  0.01619740  6.30134260  1
  Mo  Mo40  1  7.85439366  1.51905147  7.87365027  1
  Mo  Mo41  1  6.36771472  3.17585103  -0.01629389  1
  Mo  Mo42  1  7.89025701  4.77374593  1.51880039  1
  Mo  Mo43  1  6.33637477  3.17600565  3.15206667  1
  Mo  Mo44  1  7.87764297  4.75010683  4.68459851  1
  Mo  Mo45  1  6.27972386  3.12931556  6.23940588  1
  Mo  Mo46  1  7.88448267  4.69051707  7.83659128  1
  Mo  Mo47  1  6.33338931  6.31439852  0.05355271  1
  Mo  Mo48  1  7.82748006  7.87898433  1.50112781  1
  Mo  Mo49  1  6.33103459  6.33233215  3.17758775  1
  Mo  Mo50  1  7.92317145  7.91132396  4.68454018  1
  Mo  Mo51  1  6.28590025  6.25520429  6.31858316  1
  Mo  Mo52  1  7.83855212  7.80936939  7.82685821  1
