# generated using pymatgen
data_Mo
_symmetry_space_group_name_H-M   'P 1'
_cell_length_a   9.44236900
_cell_length_b   9.44236900
_cell_length_c   9.44236900
_cell_angle_alpha   90.00000000
_cell_angle_beta   90.00000000
_cell_angle_gamma   90.00000000
_symmetry_Int_Tables_number   1
_chemical_formula_structural   Mo
_chemical_formula_sum   Mo53
_cell_volume   841.86587335
_cell_formula_units_Z   53
loop_
 _symmetry_equiv_pos_site_id
 _symmetry_equiv_pos_as_xyz
  1  'x, y, z'
loop_
 _atom_site_type_symbol
 _atom_site_label
 _atom_site_symmetry_multiplicity
 _atom_site_fract_x
 _atom_site_fract_y
 _atom_site_fract_z
 _atom_site_occupancy
  Mo  Mo0  1  1.47586692  1.50462502  1.55571222  1
  Mo  Mo1  1  0.01539131  0.02575803  3.04067539  1
  Mo  Mo2  1  1.60081529  1.54494597  4.73460713  1
  Mo  Mo3  1  0.08910342  0.02271500  6.36954232  1
  Mo  Mo4  1  1.47358950  1.52132428  7.87999866  1
  Mo  Mo5  1  -0.00175674  3.02933521  0.04205687  1
  Mo  Mo6  1  1.58215847  4.72847390  1.56884659  1
  Mo  Mo7  1  -0.02402540  3.15670103  3.15701231  1
  Mo  Mo8  1  1.50012544  4.69569385  4.71845266  1
  Mo  Mo9  1  -0.02158455  3.21953027  6.25745972  1
  Mo  Mo10  1  1.57518971  4.68931108  7.96618128  1
  Mo  Mo11  1  0.03921618  6.33891569  -0.07613126  1
  Mo  Mo12  1  1.50583427  7.88202473  1.55804505  1
  Mo  Mo13  1  -0.01936842  6.32616421  3.08493014  1
  Mo  Mo14  1  1.60795319  7.87220857  4.68241089  1
  Mo  Mo15  1  -0.02759395  6.33161054  6.20212796  1
  Mo  Mo16  1  1.63923601  7.83892330  7.86720963  1
  Mo  Mo17  1  3.06359445  -0.05930937  -0.00076048  1
  Mo  Mo18  1  4.72058242  1.57194494  1.49598346  1
  Mo  Mo19  1  3.16967918  0.04866527  3.11705637  1
  Mo  Mo20  1  4.77289186  1.56008216  4.68046325  1
  Mo  Mo21  1  3.20124931  0.00346884  6.26289096  1
  Mo  Mo22  1  4.72933909  1.47224364  7.85154350  1
  Mo  Mo23  1  3.10669242  3.05970660  0.10412369  1
  Mo  Mo24  1  4.74657738  4.74527232  1.61660238  1
  Mo  Mo25  1  3.14900839  3.19227843  3.18041794  1
  Mo  Mo26  1  4.67617929  4.74748274  4.73909142  1
  Mo  Mo27  1  3.13284532  3.14916924  6.34981551  1
  Mo  Mo28  1  4.74363700  4.68503102  7.94378945  1
  Mo  Mo29  1  3.14970018  6.22258085  0.05357872  1
  Mo  Mo30  1  4.74597028  7.88935567  1.60640912  1
  Mo  Mo31  1  3.12829727  6.27709792  3.14637583  1
  Mo  Mo32  1  4.75056642  7.88554358  4.67051382  1
  Mo  Mo33  1  3.15111275  6.24770866  6.29510269  1
  Mo  Mo34  1  4.80364903  7.81849968  7.93310060  1
  Mo  Mo35  1  6.34355259  -0.00449825  0.02287909  1
  Mo  Mo36  1  7.84583531  1.63009260  1.59222983  1
  Mo  Mo37  1  6.28088235  0.06857870  3.19181288  1
  Mo  Mo38  1  7.89779290  1.58893040  4.70911429  1
  Mo  Mo39  1  6.29203854  0.00761847  6.32843024  1
  Mo  Mo40  1  7.94523432  1.50306178  7.84756656  1
  Mo  Mo41  1  6.22482353  3.10795566  0.04167065  1
  Mo  Mo42  1  7.88736255  4.76439190  1.50317201  1
  Mo  Mo43  1  6.24952309  3.23789628  3.16093499  1
  Mo  Mo44  1  7.85732515  4.74725582  4.71475533  1
  Mo  Mo45  1  6.23120225  3.19279455  6.32053286  1
  Mo  Mo46  1  7.90073214  4.69840129  7.84576913  1
  Mo  Mo47  1  6.27767575  6.23316886  0.00974156  1
  Mo  Mo48  1  7.90059411  7.96961749  1.48481852  1
  Mo  Mo49  1  6.27259935  6.32148869  3.20890737  1
  Mo  Mo50  1  7.89101623  7.93992637  4.70940062  1
  Mo  Mo51  1  6.26663227  6.30472385  6.24288358  1
  Mo  Mo52  1  7.93676223  7.89682502  7.86345214  1
