# generated using pymatgen
data_Mo
_symmetry_space_group_name_H-M   'P 1'
_cell_length_a   9.46603805
_cell_length_b   9.46603785
_cell_length_c   9.46603779
_cell_angle_alpha   90.00000282
_cell_angle_beta   89.99999931
_cell_angle_gamma   89.99999840
_symmetry_Int_Tables_number   1
_chemical_formula_structural   Mo
_chemical_formula_sum   Mo53
_cell_volume   848.21259331
_cell_formula_units_Z   53
loop_
 _symmetry_equiv_pos_site_id
 _symmetry_equiv_pos_as_xyz
  1  'x, y, z'
loop_
 _atom_site_type_symbol
 _atom_site_label
 _atom_site_symmetry_multiplicity
 _atom_site_fract_x
 _atom_site_fract_y
 _atom_site_fract_z
 _atom_site_occupancy
  Mo  Mo0  1  1.59673837  1.56879560  1.50554802  1
  Mo  Mo1  1  -0.02571704  0.02233430  3.10296571  1
  Mo  Mo2  1  1.59488675  1.47620318  4.72074728  1
  Mo  Mo3  1  -0.00356530  0.00439879  6.37817885  1
  Mo  Mo4  1  1.60037653  1.56900378  7.82983484  1
  Mo  Mo5  1  -0.01050911  3.11297311  -0.01175873  1
  Mo  Mo6  1  1.55580816  4.73031494  1.55986034  1
  Mo  Mo7  1  -0.00770905  3.17017778  3.15924690  1
  Mo  Mo8  1  1.58415209  4.75878889  4.70261647  1
  Mo  Mo9  1  -0.01428240  3.18531151  6.29499036  1
  Mo  Mo10  1  1.51895129  4.75474860  7.90408080  1
  Mo  Mo11  1  0.02603053  6.34365641  -0.03500650  1
  Mo  Mo12  1  1.60382082  7.94091771  1.52020482  1
  Mo  Mo13  1  -0.07512145  6.32155787  3.05996815  1
  Mo  Mo14  1  1.50770772  7.89689633  4.71480983  1
  Mo  Mo15  1  0.00811826  6.29633965  6.25482326  1
  Mo  Mo16  1  1.52982350  7.91376496  7.90243456  1
  Mo  Mo17  1  3.10328998  -0.03394752  0.00286486  1
  Mo  Mo18  1  4.76861752  1.58822855  1.49262795  1
  Mo  Mo19  1  3.16980022  0.01928155  3.11450424  1
  Mo  Mo20  1  4.75360028  1.53523517  4.71644229  1
  Mo  Mo21  1  3.22437170  -0.02506062  6.29524414  1
  Mo  Mo22  1  4.73129726  1.51962692  7.89223849  1
  Mo  Mo23  1  3.15356021  3.18854189  0.01275380  1
  Mo  Mo24  1  4.71670627  4.78137004  1.62611396  1
  Mo  Mo25  1  3.18146738  3.14741964  3.16079396  1
  Mo  Mo26  1  4.73235053  4.69290972  4.82227102  1
  Mo  Mo27  1  3.16725035  3.11562309  6.35803722  1
  Mo  Mo28  1  4.71002306  4.71199702  7.97333854  1
  Mo  Mo29  1  3.13826738  6.32157362  -0.00042948  1
  Mo  Mo30  1  4.69693217  7.95739480  1.58928107  1
  Mo  Mo31  1  3.12682712  6.26360367  3.19535188  1
  Mo  Mo32  1  4.71274124  7.88083872  4.75915712  1
  Mo  Mo33  1  3.17397292  6.24112251  6.32835502  1
  Mo  Mo34  1  4.71122884  7.87997468  7.92315130  1
  Mo  Mo35  1  6.34351684  0.01037099  -0.01817356  1
  Mo  Mo36  1  7.96377523  1.59483231  1.58007359  1
  Mo  Mo37  1  6.28083096  0.02519273  3.11317742  1
  Mo  Mo38  1  8.00073197  1.60474878  4.70988627  1
  Mo  Mo39  1  6.33896985  -0.04571213  6.26352393  1
  Mo  Mo40  1  7.88001041  1.59497837  7.88978099  1
  Mo  Mo41  1  6.29804565  3.11848603  0.02925210  1
  Mo  Mo42  1  7.94966304  4.76074308  1.57190056  1
  Mo  Mo43  1  6.28592210  3.15995471  3.19356805  1
  Mo  Mo44  1  7.90390760  4.76135822  4.78807046  1
  Mo  Mo45  1  6.38049176  3.13539030  6.33789327  1
  Mo  Mo46  1  7.89549683  4.78668932  7.92214954  1
  Mo  Mo47  1  6.30492194  6.26935333  -0.00661028  1
  Mo  Mo48  1  7.84760070  7.91098523  1.59952404  1
  Mo  Mo49  1  6.27385482  6.29325023  3.20882477  1
  Mo  Mo50  1  7.89677805  7.97423573  4.71528540  1
  Mo  Mo51  1  6.28468982  6.25075409  6.34554982  1
  Mo  Mo52  1  7.89484254  7.92832520  7.91653155  1
