# generated using pymatgen
data_Mo
_symmetry_space_group_name_H-M   'P 1'
_cell_length_a   9.44236900
_cell_length_b   9.44236900
_cell_length_c   9.44236900
_cell_angle_alpha   90.00000000
_cell_angle_beta   90.00000000
_cell_angle_gamma   90.00000000
_symmetry_Int_Tables_number   1
_chemical_formula_structural   Mo
_chemical_formula_sum   Mo53
_cell_volume   841.86587335
_cell_formula_units_Z   53
loop_
 _symmetry_equiv_pos_site_id
 _symmetry_equiv_pos_as_xyz
  1  'x, y, z'
loop_
 _atom_site_type_symbol
 _atom_site_label
 _atom_site_symmetry_multiplicity
 _atom_site_fract_x
 _atom_site_fract_y
 _atom_site_fract_z
 _atom_site_occupancy
  Mo  Mo0  1  1.60194793  1.57918491  1.48549449  1
  Mo  Mo1  1  -0.00546807  -0.05128137  3.17252681  1
  Mo  Mo2  1  1.54295838  1.49498956  4.68714143  1
  Mo  Mo3  1  -0.11329127  -0.01850729  6.21824695  1
  Mo  Mo4  1  1.69731701  1.51417104  7.86149834  1
  Mo  Mo5  1  -0.02804963  3.21106031  -0.03083333  1
  Mo  Mo6  1  1.50176090  4.70843078  1.59433105  1
  Mo  Mo7  1  -0.01381897  3.13080348  3.14254199  1
  Mo  Mo8  1  1.60765216  4.68935975  4.76608128  1
  Mo  Mo9  1  -0.01970234  3.08130864  6.33363090  1
  Mo  Mo10  1  1.60082965  4.71300993  7.85650422  1
  Mo  Mo11  1  0.00411307  6.29418330  0.07428758  1
  Mo  Mo12  1  1.61710975  7.90807457  1.57415534  1
  Mo  Mo13  1  -0.00334748  6.22548789  3.20764680  1
  Mo  Mo14  1  1.45869202  7.80000730  4.75761208  1
  Mo  Mo15  1  -0.02749245  6.23721307  6.34947105  1
  Mo  Mo16  1  1.50187947  7.85353902  7.88211756  1
  Mo  Mo17  1  3.18471585  0.05682813  -0.03762502  1
  Mo  Mo18  1  4.67973864  1.56079651  1.61595322  1
  Mo  Mo19  1  3.16632527  -0.00056837  3.12412995  1
  Mo  Mo20  1  4.69206047  1.57241704  4.77026058  1
  Mo  Mo21  1  3.07985202  -0.00573062  6.25854304  1
  Mo  Mo22  1  4.74696069  1.54778309  7.92118363  1
  Mo  Mo23  1  3.14959793  3.23690337  -0.04668239  1
  Mo  Mo24  1  4.65310161  4.71269739  1.52970679  1
  Mo  Mo25  1  3.11071340  3.15215823  3.18191248  1
  Mo  Mo26  1  4.74330673  4.75166377  4.76988173  1
  Mo  Mo27  1  3.16844755  3.13724035  6.27114713  1
  Mo  Mo28  1  4.73369410  4.71649472  7.87133394  1
  Mo  Mo29  1  3.19181628  6.35914913  -0.05967879  1
  Mo  Mo30  1  4.71491986  7.93804092  1.50303029  1
  Mo  Mo31  1  3.19601690  6.33533283  3.16110051  1
  Mo  Mo32  1  4.68309119  7.90746619  4.75181894  1
  Mo  Mo33  1  3.14332949  6.30451247  6.27999523  1
  Mo  Mo34  1  4.71674206  7.91276686  7.84978642  1
  Mo  Mo35  1  6.31653722  0.01722198  0.02336054  1
  Mo  Mo36  1  7.92348047  1.56670421  1.50195773  1
  Mo  Mo37  1  6.32071314  -0.05504801  3.15399087  1
  Mo  Mo38  1  7.91002633  1.56731093  4.71858038  1
  Mo  Mo39  1  6.25720468  0.02529443  6.31319939  1
  Mo  Mo40  1  7.87120844  1.61318680  7.86927492  1
  Mo  Mo41  1  6.29957015  3.15209112  0.02296848  1
  Mo  Mo42  1  7.85353898  4.71078895  1.53458462  1
  Mo  Mo43  1  6.25728011  3.10937342  3.14728469  1
  Mo  Mo44  1  7.86399458  4.73541826  4.69686846  1
  Mo  Mo45  1  6.34268347  3.15853807  6.28114320  1
  Mo  Mo46  1  7.94949109  4.76942976  7.87152050  1
  Mo  Mo47  1  6.34112111  6.32260152  -0.01318408  1
  Mo  Mo48  1  7.91254038  7.84880731  1.59492536  1
  Mo  Mo49  1  6.29521747  6.27602012  3.08272106  1
  Mo  Mo50  1  7.83584973  7.85257067  4.72771523  1
  Mo  Mo51  1  6.30342644  6.30530285  6.30940889  1
  Mo  Mo52  1  7.92190344  7.91071295  7.96873496  1
