# generated using pymatgen
data_Mo
_symmetry_space_group_name_H-M   'P 1'
_cell_length_a   9.44236900
_cell_length_b   9.44236900
_cell_length_c   9.44236900
_cell_angle_alpha   90.00000000
_cell_angle_beta   90.00000000
_cell_angle_gamma   90.00000000
_symmetry_Int_Tables_number   1
_chemical_formula_structural   Mo
_chemical_formula_sum   Mo53
_cell_volume   841.86587335
_cell_formula_units_Z   53
loop_
 _symmetry_equiv_pos_site_id
 _symmetry_equiv_pos_as_xyz
  1  'x, y, z'
loop_
 _atom_site_type_symbol
 _atom_site_label
 _atom_site_symmetry_multiplicity
 _atom_site_fract_x
 _atom_site_fract_y
 _atom_site_fract_z
 _atom_site_occupancy
  Mo  Mo0  1  1.57978064  1.55908504  1.64348030  1
  Mo  Mo1  1  0.01028080  -0.01697468  3.20152986  1
  Mo  Mo2  1  1.56867707  1.56334537  4.75319660  1
  Mo  Mo3  1  0.04726115  0.02143502  6.33464393  1
  Mo  Mo4  1  1.59392532  1.58637873  7.91846273  1
  Mo  Mo5  1  -0.05111742  3.14260813  -0.01229759  1
  Mo  Mo6  1  1.48287342  4.66808255  1.61312264  1
  Mo  Mo7  1  0.05770815  3.18607242  3.11599511  1
  Mo  Mo8  1  1.58980677  4.76199614  4.72963295  1
  Mo  Mo9  1  0.02203645  3.15464666  6.28398464  1
  Mo  Mo10  1  1.53954888  4.75725750  7.92321508  1
  Mo  Mo11  1  -0.07681239  6.30446832  -0.03990439  1
  Mo  Mo12  1  1.51273373  7.82617694  1.57325169  1
  Mo  Mo13  1  -0.00248970  6.35296691  3.11635683  1
  Mo  Mo14  1  1.55505281  7.92951132  4.74661656  1
  Mo  Mo15  1  0.07562773  6.31497385  6.29896977  1
  Mo  Mo16  1  1.55408163  7.94817183  7.91163341  1
  Mo  Mo17  1  3.08725317  0.01670139  0.03218762  1
  Mo  Mo18  1  4.75257585  1.46281295  1.54275078  1
  Mo  Mo19  1  3.16299255  -0.03315326  3.16249647  1
  Mo  Mo20  1  4.73140664  1.57140444  4.72403719  1
  Mo  Mo21  1  3.15667189  0.02153170  6.32934374  1
  Mo  Mo22  1  4.73296416  1.55109194  7.88460306  1
  Mo  Mo23  1  3.11640998  3.14402257  -0.02096533  1
  Mo  Mo24  1  4.76734269  4.68198831  1.52889492  1
  Mo  Mo25  1  3.17051766  3.09853555  3.07945284  1
  Mo  Mo26  1  4.71403048  4.66279533  4.67935392  1
  Mo  Mo27  1  3.11839368  3.19169332  6.30041169  1
  Mo  Mo28  1  4.69307080  4.73631227  7.86680882  1
  Mo  Mo29  1  3.15166657  6.28505611  0.00923786  1
  Mo  Mo30  1  4.72475805  7.87114339  1.56602358  1
  Mo  Mo31  1  3.09545138  6.28355162  3.15805302  1
  Mo  Mo32  1  4.73433585  7.86877017  4.73080192  1
  Mo  Mo33  1  3.15198228  6.31567197  6.28348132  1
  Mo  Mo34  1  4.66261844  7.92212543  7.86999157  1
  Mo  Mo35  1  6.24634319  -0.06976747  -0.06492887  1
  Mo  Mo36  1  7.87757587  1.51851419  1.52467007  1
  Mo  Mo37  1  6.28884078  0.00250221  3.12772739  1
  Mo  Mo38  1  7.99044188  1.57296779  4.73719215  1
  Mo  Mo39  1  6.29242532  -0.03190490  6.28083426  1
  Mo  Mo40  1  7.87097216  1.57004743  7.89034925  1
  Mo  Mo41  1  6.28841053  3.10478058  -0.03246155  1
  Mo  Mo42  1  7.93934078  4.70826034  1.55052217  1
  Mo  Mo43  1  6.34681727  3.16009374  3.15571076  1
  Mo  Mo44  1  7.86461874  4.78670146  4.70087869  1
  Mo  Mo45  1  6.29565328  3.11125270  6.32030230  1
  Mo  Mo46  1  7.94203794  4.73759889  7.86003928  1
  Mo  Mo47  1  6.29573010  6.26243821  -0.01247774  1
  Mo  Mo48  1  7.80653751  7.85326402  1.57718946  1
  Mo  Mo49  1  6.28888198  6.33123769  3.14256028  1
  Mo  Mo50  1  7.93348857  7.95106255  4.72585197  1
  Mo  Mo51  1  6.26066168  6.25767879  6.31535263  1
  Mo  Mo52  1  7.84111261  7.91432681  7.81513974  1
