# generated using pymatgen
data_Mo
_symmetry_space_group_name_H-M   'P 1'
_cell_length_a   9.44236900
_cell_length_b   9.44236900
_cell_length_c   9.44236900
_cell_angle_alpha   90.00000000
_cell_angle_beta   90.00000000
_cell_angle_gamma   90.00000000
_symmetry_Int_Tables_number   1
_chemical_formula_structural   Mo
_chemical_formula_sum   Mo53
_cell_volume   841.86587335
_cell_formula_units_Z   53
loop_
 _symmetry_equiv_pos_site_id
 _symmetry_equiv_pos_as_xyz
  1  'x, y, z'
loop_
 _atom_site_type_symbol
 _atom_site_label
 _atom_site_symmetry_multiplicity
 _atom_site_fract_x
 _atom_site_fract_y
 _atom_site_fract_z
 _atom_site_occupancy
  Mo  Mo0  1  1.55073579  1.54714647  1.52381648  1
  Mo  Mo1  1  0.01306696  0.00524989  3.15306840  1
  Mo  Mo2  1  1.51488717  1.46524388  4.70032155  1
  Mo  Mo3  1  -0.00247718  -0.06194983  6.30115136  1
  Mo  Mo4  1  1.47995015  1.50538284  7.85984896  1
  Mo  Mo5  1  0.03800433  3.13925357  0.04142436  1
  Mo  Mo6  1  1.53914835  4.72904583  1.58087458  1
  Mo  Mo7  1  0.01928160  3.16659163  3.14876825  1
  Mo  Mo8  1  1.51578826  4.64603135  4.76981600  1
  Mo  Mo9  1  -0.02112940  3.12327800  6.27302790  1
  Mo  Mo10  1  1.53494835  4.64912174  7.95713387  1
  Mo  Mo11  1  0.02533844  6.29983863  -0.01349648  1
  Mo  Mo12  1  1.57241012  7.90006870  1.55073772  1
  Mo  Mo13  1  0.02086009  6.28470704  3.13241814  1
  Mo  Mo14  1  1.47463122  7.81728494  4.65170249  1
  Mo  Mo15  1  -0.05842492  6.24801575  6.28547176  1
  Mo  Mo16  1  1.60522468  7.83264097  7.84667902  1
  Mo  Mo17  1  3.16356658  0.00222176  -0.05167692  1
  Mo  Mo18  1  4.69437722  1.55999643  1.51885912  1
  Mo  Mo19  1  3.16046693  0.04714530  3.10019205  1
  Mo  Mo20  1  4.70218533  1.56046589  4.71120817  1
  Mo  Mo21  1  3.16914811  -0.03935218  6.24582959  1
  Mo  Mo22  1  4.74339468  1.53692769  7.90300471  1
  Mo  Mo23  1  3.15580001  3.09617244  0.07033103  1
  Mo  Mo24  1  4.69400605  4.75265077  1.56711074  1
  Mo  Mo25  1  3.13685373  3.19159270  3.21609009  1
  Mo  Mo26  1  4.72447686  4.72315700  4.72552623  1
  Mo  Mo27  1  3.16523752  3.12234782  6.35448570  1
  Mo  Mo28  1  4.71284215  4.75962914  7.88204047  1
  Mo  Mo29  1  3.22335406  6.30664353  -0.01224434  1
  Mo  Mo30  1  4.78385888  7.91180200  1.57597342  1
  Mo  Mo31  1  3.10673511  6.30697088  3.21310868  1
  Mo  Mo32  1  4.70884635  7.87710143  4.67768713  1
  Mo  Mo33  1  3.14652196  6.27987472  6.28421300  1
  Mo  Mo34  1  4.77110757  7.93076992  7.96287985  1
  Mo  Mo35  1  6.36694175  0.03893014  0.03320819  1
  Mo  Mo36  1  7.84792205  1.65053657  1.56406007  1
  Mo  Mo37  1  6.25756735  -0.00270600  3.14233179  1
  Mo  Mo38  1  7.87149257  1.51634533  4.67213455  1
  Mo  Mo39  1  6.26859958  0.04491459  6.34584718  1
  Mo  Mo40  1  7.94574262  1.57805148  7.89836590  1
  Mo  Mo41  1  6.25073406  3.14151609  0.02997682  1
  Mo  Mo42  1  7.91623766  4.76934356  1.46415246  1
  Mo  Mo43  1  6.23400051  3.19930096  3.18363165  1
  Mo  Mo44  1  7.84164360  4.69229992  4.65919530  1
  Mo  Mo45  1  6.26701154  3.17423238  6.33903857  1
  Mo  Mo46  1  7.89800247  4.70573841  7.91936568  1
  Mo  Mo47  1  6.31869814  6.27343654  0.02058202  1
  Mo  Mo48  1  7.94928316  7.93610650  1.47102668  1
  Mo  Mo49  1  6.33537351  6.30328644  3.15746851  1
  Mo  Mo50  1  7.90030272  7.96059216  4.64171168  1
  Mo  Mo51  1  6.29026217  6.36316437  6.28736575  1
  Mo  Mo52  1  7.90846877  7.88515429  7.91646148  1
