# generated using pymatgen
data_Mo
_symmetry_space_group_name_H-M   'P 1'
_cell_length_a   9.44236900
_cell_length_b   9.44236900
_cell_length_c   9.44236900
_cell_angle_alpha   90.00000000
_cell_angle_beta   90.00000000
_cell_angle_gamma   90.00000000
_symmetry_Int_Tables_number   1
_chemical_formula_structural   Mo
_chemical_formula_sum   Mo53
_cell_volume   841.86587335
_cell_formula_units_Z   53
loop_
 _symmetry_equiv_pos_site_id
 _symmetry_equiv_pos_as_xyz
  1  'x, y, z'
loop_
 _atom_site_type_symbol
 _atom_site_label
 _atom_site_symmetry_multiplicity
 _atom_site_fract_x
 _atom_site_fract_y
 _atom_site_fract_z
 _atom_site_occupancy
  Mo  Mo0  1  1.56554276  1.61781371  1.58690548  1
  Mo  Mo1  1  0.00853133  0.02416200  3.11134180  1
  Mo  Mo2  1  1.55340781  1.65307588  4.71531103  1
  Mo  Mo3  1  0.01299578  0.04257302  6.34397372  1
  Mo  Mo4  1  1.52828885  1.54561257  7.80595772  1
  Mo  Mo5  1  0.03685447  3.09852418  -0.00786959  1
  Mo  Mo6  1  1.60940955  4.75744141  1.55235178  1
  Mo  Mo7  1  0.00656911  3.15998783  3.17801826  1
  Mo  Mo8  1  1.51389221  4.75722861  4.73111855  1
  Mo  Mo9  1  -0.00038251  3.22128079  6.23368788  1
  Mo  Mo10  1  1.49913325  4.72142647  7.87886009  1
  Mo  Mo11  1  0.01536883  6.36529505  -0.02575139  1
  Mo  Mo12  1  1.59426374  7.90544314  1.55642881  1
  Mo  Mo13  1  -0.03593719  6.32320859  3.14043007  1
  Mo  Mo14  1  1.57656531  7.90106890  4.78162184  1
  Mo  Mo15  1  -0.03469404  6.34987622  6.27473060  1
  Mo  Mo16  1  1.50440889  7.91033135  7.90453369  1
  Mo  Mo17  1  3.03406839  -0.02372103  0.04911144  1
  Mo  Mo18  1  4.75210618  1.55979813  1.51732809  1
  Mo  Mo19  1  3.08622165  -0.00990850  3.23665375  1
  Mo  Mo20  1  4.68557385  1.57204187  4.73170205  1
  Mo  Mo21  1  3.18485158  -0.01410966  6.34063886  1
  Mo  Mo22  1  4.73296814  1.50472242  7.87465000  1
  Mo  Mo23  1  3.14758954  3.05835975  -0.01610300  1
  Mo  Mo24  1  4.70391098  4.73305303  1.56180667  1
  Mo  Mo25  1  3.15318612  3.16400601  3.19786918  1
  Mo  Mo26  1  4.72788326  4.68488724  4.70931860  1
  Mo  Mo27  1  3.18981087  3.12950857  6.33061193  1
  Mo  Mo28  1  4.66769174  4.70211925  7.90603477  1
  Mo  Mo29  1  3.09233898  6.27430343  0.01267659  1
  Mo  Mo30  1  4.75926699  7.86195085  1.55500433  1
  Mo  Mo31  1  3.12759521  6.31133322  3.15255617  1
  Mo  Mo32  1  4.77649382  7.87448388  4.68383885  1
  Mo  Mo33  1  3.16224931  6.32291453  6.27923593  1
  Mo  Mo34  1  4.69653213  7.86463429  7.90619031  1
  Mo  Mo35  1  6.38034712  -0.03981024  0.00799222  1
  Mo  Mo36  1  7.93645228  1.53755351  1.52264616  1
  Mo  Mo37  1  6.26406836  0.00618542  3.12956031  1
  Mo  Mo38  1  7.81956950  1.54418552  4.63969761  1
  Mo  Mo39  1  6.36947326  0.00166293  6.24484478  1
  Mo  Mo40  1  7.95121839  1.57898892  7.89609220  1
  Mo  Mo41  1  6.30237944  3.12270095  0.02477498  1
  Mo  Mo42  1  7.89855575  4.66979485  1.56797329  1
  Mo  Mo43  1  6.28240148  3.08049834  3.16096427  1
  Mo  Mo44  1  7.85579224  4.70475705  4.68416624  1
  Mo  Mo45  1  6.34963653  3.12310025  6.32352676  1
  Mo  Mo46  1  7.79645527  4.71561425  7.88818179  1
  Mo  Mo47  1  6.25942071  6.27099482  -0.02046249  1
  Mo  Mo48  1  7.98935013  7.89565767  1.54836365  1
  Mo  Mo49  1  6.32556373  6.27645303  3.10376403  1
  Mo  Mo50  1  7.89230468  7.82695910  4.71774127  1
  Mo  Mo51  1  6.29960284  6.33141156  6.29521769  1
  Mo  Mo52  1  7.84615875  7.88187740  7.92748774  1
