# generated using pymatgen
data_Mo
_symmetry_space_group_name_H-M   'P 1'
_cell_length_a   9.44236900
_cell_length_b   9.44236900
_cell_length_c   9.44236900
_cell_angle_alpha   90.00000000
_cell_angle_beta   90.00000000
_cell_angle_gamma   90.00000000
_symmetry_Int_Tables_number   1
_chemical_formula_structural   Mo
_chemical_formula_sum   Mo53
_cell_volume   841.86587335
_cell_formula_units_Z   53
loop_
 _symmetry_equiv_pos_site_id
 _symmetry_equiv_pos_as_xyz
  1  'x, y, z'
loop_
 _atom_site_type_symbol
 _atom_site_label
 _atom_site_symmetry_multiplicity
 _atom_site_fract_x
 _atom_site_fract_y
 _atom_site_fract_z
 _atom_site_occupancy
  Mo  Mo0  1  1.52022580  1.47240477  1.51087944  1
  Mo  Mo1  1  -0.01308293  -0.01849876  3.11019646  1
  Mo  Mo2  1  1.60086229  1.48738690  4.65652981  1
  Mo  Mo3  1  -0.05651318  0.00614113  6.23100718  1
  Mo  Mo4  1  1.53726140  1.57563003  7.88170841  1
  Mo  Mo5  1  0.00019688  3.15096491  0.02129742  1
  Mo  Mo6  1  1.57771219  4.67646867  1.57065742  1
  Mo  Mo7  1  0.06323026  3.14091205  3.17597320  1
  Mo  Mo8  1  1.54989252  4.68250528  4.75192051  1
  Mo  Mo9  1  -0.07454853  3.12294878  6.29124111  1
  Mo  Mo10  1  1.55641800  4.72683951  7.97586061  1
  Mo  Mo11  1  -0.02449500  6.29386513  0.03412395  1
  Mo  Mo12  1  1.58340378  7.92109596  1.53799178  1
  Mo  Mo13  1  0.01493241  6.30523622  3.13168950  1
  Mo  Mo14  1  1.51631362  7.85067130  4.71992748  1
  Mo  Mo15  1  -0.00798789  6.31251925  6.27613239  1
  Mo  Mo16  1  1.53991748  7.87803793  7.95231048  1
  Mo  Mo17  1  3.16319331  0.05005969  0.03318539  1
  Mo  Mo18  1  4.78012847  1.64836477  1.49655470  1
  Mo  Mo19  1  3.17785358  0.02582200  3.13487298  1
  Mo  Mo20  1  4.68583397  1.56269258  4.69814975  1
  Mo  Mo21  1  3.09979234  -0.02658469  6.28498430  1
  Mo  Mo22  1  4.73124923  1.50042160  7.94357110  1
  Mo  Mo23  1  3.11457890  3.15333218  0.02683356  1
  Mo  Mo24  1  4.72883852  4.75891057  1.61842027  1
  Mo  Mo25  1  3.23786445  3.15241703  3.12805597  1
  Mo  Mo26  1  4.74793402  4.72532493  4.79847645  1
  Mo  Mo27  1  3.14508976  3.13240970  6.29841215  1
  Mo  Mo28  1  4.68450430  4.74020372  7.91088004  1
  Mo  Mo29  1  3.12934585  6.36563288  0.04670311  1
  Mo  Mo30  1  4.74431931  7.95608038  1.60630440  1
  Mo  Mo31  1  3.13871466  6.26289368  3.19699215  1
  Mo  Mo32  1  4.69059648  7.88382939  4.71542399  1
  Mo  Mo33  1  3.13785858  6.25650873  6.24630743  1
  Mo  Mo34  1  4.69616974  7.90991676  7.94750521  1
  Mo  Mo35  1  6.33097547  -0.00019546  -0.01739655  1
  Mo  Mo36  1  7.92650367  1.61786579  1.50459859  1
  Mo  Mo37  1  6.29455053  0.03785568  3.16038759  1
  Mo  Mo38  1  7.87693224  1.53159630  4.65737453  1
  Mo  Mo39  1  6.25155991  -0.02002011  6.25287000  1
  Mo  Mo40  1  7.92384441  1.56160307  7.85188111  1
  Mo  Mo41  1  6.26142625  3.18704945  -0.04442578  1
  Mo  Mo42  1  7.93851882  4.70584581  1.53627332  1
  Mo  Mo43  1  6.34935510  3.20020155  3.13718043  1
  Mo  Mo44  1  7.90020646  4.69430492  4.68477653  1
  Mo  Mo45  1  6.26475068  3.08629013  6.27358972  1
  Mo  Mo46  1  7.88931693  4.72053345  7.85939368  1
  Mo  Mo47  1  6.32251028  6.27387810  -0.01281502  1
  Mo  Mo48  1  7.84928048  7.87105568  1.56597484  1
  Mo  Mo49  1  6.32296529  6.30993423  3.20677876  1
  Mo  Mo50  1  7.88292260  7.93047448  4.74209939  1
  Mo  Mo51  1  6.25845677  6.24280373  6.25471873  1
  Mo  Mo52  1  7.89162694  7.85887061  7.87896743  1
