# generated using pymatgen
data_Mo
_symmetry_space_group_name_H-M   'P 1'
_cell_length_a   9.44236900
_cell_length_b   9.44236900
_cell_length_c   9.44236900
_cell_angle_alpha   90.00000000
_cell_angle_beta   90.00000000
_cell_angle_gamma   90.00000000
_symmetry_Int_Tables_number   1
_chemical_formula_structural   Mo
_chemical_formula_sum   Mo53
_cell_volume   841.86587335
_cell_formula_units_Z   53
loop_
 _symmetry_equiv_pos_site_id
 _symmetry_equiv_pos_as_xyz
  1  'x, y, z'
loop_
 _atom_site_type_symbol
 _atom_site_label
 _atom_site_symmetry_multiplicity
 _atom_site_fract_x
 _atom_site_fract_y
 _atom_site_fract_z
 _atom_site_occupancy
  Mo  Mo0  1  1.64531623  1.57824920  1.44420068  1
  Mo  Mo1  1  -0.01800959  -0.03801536  3.11720356  1
  Mo  Mo2  1  1.52069322  1.52679806  4.72712488  1
  Mo  Mo3  1  0.01510490  -0.02331242  6.35084731  1
  Mo  Mo4  1  1.53268637  1.48501423  7.98569788  1
  Mo  Mo5  1  -0.04972994  3.09293024  -0.01470982  1
  Mo  Mo6  1  1.57747131  4.70987706  1.54367947  1
  Mo  Mo7  1  -0.02701054  3.09497371  3.15158267  1
  Mo  Mo8  1  1.59687533  4.67672463  4.68220250  1
  Mo  Mo9  1  0.02319910  3.15629033  6.30679858  1
  Mo  Mo10  1  1.52005963  4.68320576  7.85777302  1
  Mo  Mo11  1  0.00833830  6.33457341  -0.06519055  1
  Mo  Mo12  1  1.53214880  7.88989507  1.55041144  1
  Mo  Mo13  1  0.02217606  6.23909290  3.12032439  1
  Mo  Mo14  1  1.56744187  7.80545575  4.71136384  1
  Mo  Mo15  1  0.04116687  6.27759444  6.26719036  1
  Mo  Mo16  1  1.55663846  7.87181792  7.88300989  1
  Mo  Mo17  1  3.17015883  -0.02236097  -0.05881793  1
  Mo  Mo18  1  4.74016411  1.65131981  1.50073531  1
  Mo  Mo19  1  3.14366753  0.02288507  3.15204473  1
  Mo  Mo20  1  4.72761522  1.57248155  4.72616285  1
  Mo  Mo21  1  3.10746858  0.02994815  6.24477937  1
  Mo  Mo22  1  4.68559538  1.57102750  7.79051841  1
  Mo  Mo23  1  3.19412816  3.24362403  -0.00853913  1
  Mo  Mo24  1  4.79110582  4.81875850  1.57342153  1
  Mo  Mo25  1  3.16095276  3.19513943  3.20315628  1
  Mo  Mo26  1  4.71591175  4.71389584  4.76911346  1
  Mo  Mo27  1  3.05928610  3.14504455  6.28373700  1
  Mo  Mo28  1  4.71356459  4.72841667  7.92845188  1
  Mo  Mo29  1  3.19152607  6.29478431  0.02005316  1
  Mo  Mo30  1  4.72024016  7.94667724  1.56629256  1
  Mo  Mo31  1  3.17252532  6.31884181  3.15368761  1
  Mo  Mo32  1  4.69463929  7.87599459  4.76476558  1
  Mo  Mo33  1  3.13148862  6.28962294  6.33345609  1
  Mo  Mo34  1  4.72854450  7.82166142  7.84412194  1
  Mo  Mo35  1  6.34503591  -0.00008763  -0.00094757  1
  Mo  Mo36  1  7.85960029  1.55817219  1.51621773  1
  Mo  Mo37  1  6.26423652  -0.04352453  3.16295440  1
  Mo  Mo38  1  7.91958298  1.58385376  4.75200036  1
  Mo  Mo39  1  6.25927965  -0.04557077  6.26328316  1
  Mo  Mo40  1  7.81777386  1.48950323  7.88630049  1
  Mo  Mo41  1  6.32294373  3.18227069  -0.01297527  1
  Mo  Mo42  1  7.89367605  4.76987155  1.60629498  1
  Mo  Mo43  1  6.25830176  3.17704737  3.22713041  1
  Mo  Mo44  1  7.94240360  4.73514037  4.79614104  1
  Mo  Mo45  1  6.24942970  3.15932035  6.29541698  1
  Mo  Mo46  1  7.87196307  4.74276114  7.88740965  1
  Mo  Mo47  1  6.27011075  6.31067500  0.02176318  1
  Mo  Mo48  1  7.91072780  7.91788475  1.53115769  1
  Mo  Mo49  1  6.26472188  6.29032087  3.19176751  1
  Mo  Mo50  1  7.89063461  7.82384295  4.72020382  1
  Mo  Mo51  1  6.32104089  6.29946864  6.29963651  1
  Mo  Mo52  1  7.87869515  7.92343501  7.90290149  1
