# generated using pymatgen
data_Mo
_symmetry_space_group_name_H-M   'P 1'
_cell_length_a   9.48969964
_cell_length_b   9.48969964
_cell_length_c   9.48969964
_cell_angle_alpha   90.00000000
_cell_angle_beta   90.00000000
_cell_angle_gamma   90.00000000
_symmetry_Int_Tables_number   1
_chemical_formula_structural   Mo
_chemical_formula_sum   Mo53
_cell_volume   854.58919962
_cell_formula_units_Z   53
loop_
 _symmetry_equiv_pos_site_id
 _symmetry_equiv_pos_as_xyz
  1  'x, y, z'
loop_
 _atom_site_type_symbol
 _atom_site_label
 _atom_site_symmetry_multiplicity
 _atom_site_fract_x
 _atom_site_fract_y
 _atom_site_fract_z
 _atom_site_occupancy
  Mo  Mo0  1  1.59841329  1.55908344  1.56284503  1
  Mo  Mo1  1  0.02689136  -0.00498086  3.14610563  1
  Mo  Mo2  1  1.59447304  1.58538148  4.74453867  1
  Mo  Mo3  1  -0.00137367  -0.02615397  6.38488999  1
  Mo  Mo4  1  1.57701638  1.58055632  7.89739126  1
  Mo  Mo5  1  -0.01727918  3.13644166  0.01151024  1
  Mo  Mo6  1  1.58428678  4.74911625  1.61607818  1
  Mo  Mo7  1  0.01409173  3.17273433  3.14718922  1
  Mo  Mo8  1  1.58031418  4.75338663  4.76279016  1
  Mo  Mo9  1  0.01522031  3.17156945  6.30522121  1
  Mo  Mo10  1  1.58749093  4.72760290  7.93920573  1
  Mo  Mo11  1  -0.01867278  6.36078196  -0.02114973  1
  Mo  Mo12  1  1.56583308  7.93030829  1.54160685  1
  Mo  Mo13  1  0.01145983  6.30585791  3.15658978  1
  Mo  Mo14  1  1.59283786  7.88664093  4.72418120  1
  Mo  Mo15  1  -0.03013367  6.28454982  6.34134817  1
  Mo  Mo16  1  1.55877131  7.91919685  7.91083247  1
  Mo  Mo17  1  3.13198998  -0.00926950  0.00643792  1
  Mo  Mo18  1  4.76644808  1.61638189  1.58422697  1
  Mo  Mo19  1  3.14097082  0.05145034  3.15469832  1
  Mo  Mo20  1  4.72210521  1.55592258  4.72550934  1
  Mo  Mo21  1  3.17350945  -0.03864497  6.34475466  1
  Mo  Mo22  1  4.70819257  1.58621146  7.88656149  1
  Mo  Mo23  1  3.13297044  3.16444862  0.02364636  1
  Mo  Mo24  1  4.77166295  4.72674515  1.57264454  1
  Mo  Mo25  1  3.14710433  3.15335642  3.17347276  1
  Mo  Mo26  1  4.70475324  4.73407317  4.77248250  1
  Mo  Mo27  1  3.17519857  3.13735697  6.31183855  1
  Mo  Mo28  1  4.73682838  4.75409325  7.92594683  1
  Mo  Mo29  1  3.17658855  6.37654073  0.00709405  1
  Mo  Mo30  1  4.74419980  7.91103975  1.59455115  1
  Mo  Mo31  1  3.21670698  6.33318502  3.15242815  1
  Mo  Mo32  1  4.75537028  7.89122866  4.72428600  1
  Mo  Mo33  1  3.18535029  6.33926881  6.31702410  1
  Mo  Mo34  1  4.74419850  7.87950444  7.94340228  1
  Mo  Mo35  1  6.35755355  -0.00238571  0.02312276  1
  Mo  Mo36  1  7.90877903  1.55824701  1.55433508  1
  Mo  Mo37  1  6.31867992  -0.00686070  3.15322327  1
  Mo  Mo38  1  7.90359358  1.62546559  4.74986887  1
  Mo  Mo39  1  6.29568529  -0.00215342  6.30303471  1
  Mo  Mo40  1  7.90280115  1.56295984  7.90682963  1
  Mo  Mo41  1  6.30982096  3.18903511  0.00824315  1
  Mo  Mo42  1  7.90485015  4.73242054  1.57793218  1
  Mo  Mo43  1  6.30466889  3.14850700  3.13934608  1
  Mo  Mo44  1  7.90032362  4.75421587  4.74625476  1
  Mo  Mo45  1  6.35038117  3.16773315  6.36165996  1
  Mo  Mo46  1  7.94226595  4.73674276  7.91385867  1
  Mo  Mo47  1  6.31332397  6.30005758  0.02625425  1
  Mo  Mo48  1  7.96569892  7.94958339  1.54771161  1
  Mo  Mo49  1  6.30208989  6.35500305  3.11905347  1
  Mo  Mo50  1  7.92645601  7.91674395  4.69722654  1
  Mo  Mo51  1  6.31267414  6.35034811  6.32884840  1
  Mo  Mo52  1  7.92480836  7.92761347  7.96925934  1
