# generated using pymatgen
data_Mo
_symmetry_space_group_name_H-M   'P 1'
_cell_length_a   9.48969964
_cell_length_b   9.48969964
_cell_length_c   9.48969964
_cell_angle_alpha   90.00000000
_cell_angle_beta   90.00000000
_cell_angle_gamma   90.00000000
_symmetry_Int_Tables_number   1
_chemical_formula_structural   Mo
_chemical_formula_sum   Mo53
_cell_volume   854.58919962
_cell_formula_units_Z   53
loop_
 _symmetry_equiv_pos_site_id
 _symmetry_equiv_pos_as_xyz
  1  'x, y, z'
loop_
 _atom_site_type_symbol
 _atom_site_label
 _atom_site_symmetry_multiplicity
 _atom_site_fract_x
 _atom_site_fract_y
 _atom_site_fract_z
 _atom_site_occupancy
  Mo  Mo0  1  1.47813031  1.62134747  1.56083606  1
  Mo  Mo1  1  -0.00653364  0.01169151  3.11990610  1
  Mo  Mo2  1  1.55058012  1.61748450  4.70086851  1
  Mo  Mo3  1  -0.01243896  -0.00508984  6.38339963  1
  Mo  Mo4  1  1.58114504  1.60690599  7.85539643  1
  Mo  Mo5  1  0.02786663  3.11732875  -0.07566481  1
  Mo  Mo6  1  1.57388777  4.72126692  1.56070968  1
  Mo  Mo7  1  0.00023193  3.21074483  3.19842676  1
  Mo  Mo8  1  1.58967341  4.75718756  4.71467969  1
  Mo  Mo9  1  -0.00042776  3.19493161  6.31653864  1
  Mo  Mo10  1  1.54099480  4.82140792  7.85798456  1
  Mo  Mo11  1  -0.03202898  6.28228357  0.00907444  1
  Mo  Mo12  1  1.56387162  7.99878110  1.55226247  1
  Mo  Mo13  1  -0.04101553  6.34004068  3.20958867  1
  Mo  Mo14  1  1.59138980  7.96393273  4.72778777  1
  Mo  Mo15  1  0.00225294  6.28001742  6.34374498  1
  Mo  Mo16  1  1.57473505  7.90973885  7.89254718  1
  Mo  Mo17  1  3.00912618  -0.01652544  -0.04088989  1
  Mo  Mo18  1  4.66776801  1.44204946  1.64176838  1
  Mo  Mo19  1  3.11599179  -0.00552654  3.19342566  1
  Mo  Mo20  1  4.72085536  1.51721793  4.79784326  1
  Mo  Mo21  1  3.13645987  0.00679727  6.34146092  1
  Mo  Mo22  1  4.78521017  1.57500908  7.95671880  1
  Mo  Mo23  1  3.19792992  3.14690318  -0.06357519  1
  Mo  Mo24  1  4.75945746  4.72294933  1.58899621  1
  Mo  Mo25  1  3.12813733  3.16855282  3.21188456  1
  Mo  Mo26  1  4.76245190  4.78880170  4.77322883  1
  Mo  Mo27  1  3.13924788  3.18403261  6.33080219  1
  Mo  Mo28  1  4.78725394  4.80536173  7.95618737  1
  Mo  Mo29  1  3.12479376  6.31679391  -0.01670540  1
  Mo  Mo30  1  4.81436177  7.88535394  1.50659257  1
  Mo  Mo31  1  3.09200424  6.37413109  3.19420406  1
  Mo  Mo32  1  4.79303175  7.90019135  4.71245122  1
  Mo  Mo33  1  3.18040916  6.30835458  6.32133857  1
  Mo  Mo34  1  4.75907670  7.96972823  7.88181491  1
  Mo  Mo35  1  6.41862577  0.04453317  0.02320215  1
  Mo  Mo36  1  7.95596349  1.49755513  1.58562065  1
  Mo  Mo37  1  6.32701741  0.01580771  3.17242364  1
  Mo  Mo38  1  7.89471615  1.46642387  4.75797984  1
  Mo  Mo39  1  6.40316212  0.03411837  6.35314204  1
  Mo  Mo40  1  7.91152752  1.60046831  7.91288317  1
  Mo  Mo41  1  6.37344133  3.14229593  -0.04081206  1
  Mo  Mo42  1  7.94359232  4.68780221  1.60643806  1
  Mo  Mo43  1  6.28996995  3.10570087  3.14562377  1
  Mo  Mo44  1  8.01297004  4.70267068  4.80070375  1
  Mo  Mo45  1  6.33070283  3.16387685  6.27883249  1
  Mo  Mo46  1  7.88587262  4.80902676  7.96580575  1
  Mo  Mo47  1  6.27988416  6.36370464  -0.00882189  1
  Mo  Mo48  1  7.98645797  7.91319152  1.55894578  1
  Mo  Mo49  1  6.31785201  6.28289075  3.14653942  1
  Mo  Mo50  1  7.95042798  7.87934482  4.75574825  1
  Mo  Mo51  1  6.32451252  6.31244063  6.31366357  1
  Mo  Mo52  1  7.95566583  7.95621275  7.97469057  1
