# generated using pymatgen
data_Mo
_symmetry_space_group_name_H-M   'P 1'
_cell_length_a   9.48969964
_cell_length_b   9.48969964
_cell_length_c   9.48969964
_cell_angle_alpha   90.00000000
_cell_angle_beta   90.00000000
_cell_angle_gamma   90.00000000
_symmetry_Int_Tables_number   1
_chemical_formula_structural   Mo
_chemical_formula_sum   Mo53
_cell_volume   854.58919962
_cell_formula_units_Z   53
loop_
 _symmetry_equiv_pos_site_id
 _symmetry_equiv_pos_as_xyz
  1  'x, y, z'
loop_
 _atom_site_type_symbol
 _atom_site_label
 _atom_site_symmetry_multiplicity
 _atom_site_fract_x
 _atom_site_fract_y
 _atom_site_fract_z
 _atom_site_occupancy
  Mo  Mo0  1  1.55815495  1.58256733  1.51343488  1
  Mo  Mo1  1  -0.01470109  0.04829913  3.14442986  1
  Mo  Mo2  1  1.49758910  1.57165048  4.76660164  1
  Mo  Mo3  1  0.02482271  -0.05181311  6.29264691  1
  Mo  Mo4  1  1.48859980  1.56799239  7.86328835  1
  Mo  Mo5  1  0.00283278  3.16789720  -0.01615707  1
  Mo  Mo6  1  1.57117434  4.75034240  1.50251325  1
  Mo  Mo7  1  -0.01249744  3.18046051  3.19256562  1
  Mo  Mo8  1  1.55283849  4.77902994  4.78438886  1
  Mo  Mo9  1  -0.02973263  3.13400272  6.30753345  1
  Mo  Mo10  1  1.54031568  4.69894916  7.91767192  1
  Mo  Mo11  1  -0.01715746  6.36447611  0.04158419  1
  Mo  Mo12  1  1.61878377  7.89537052  1.54420787  1
  Mo  Mo13  1  0.00823237  6.34011172  3.18189587  1
  Mo  Mo14  1  1.61181295  7.93397473  4.72079162  1
  Mo  Mo15  1  -0.01742572  6.33343315  6.36584202  1
  Mo  Mo16  1  1.53965241  7.94850822  7.88466534  1
  Mo  Mo17  1  3.17327323  -0.00696508  0.02255968  1
  Mo  Mo18  1  4.73894043  1.55473887  1.56800737  1
  Mo  Mo19  1  3.15349080  -0.00659651  3.18685091  1
  Mo  Mo20  1  4.72163240  1.55822792  4.73554017  1
  Mo  Mo21  1  3.19033014  -0.03114012  6.31052327  1
  Mo  Mo22  1  4.70515653  1.60460475  7.93360802  1
  Mo  Mo23  1  3.23608066  3.13495339  0.00828893  1
  Mo  Mo24  1  4.78147802  4.74298082  1.56551043  1
  Mo  Mo25  1  3.16129636  3.20390968  3.18489492  1
  Mo  Mo26  1  4.77437481  4.73319374  4.69017713  1
  Mo  Mo27  1  3.23435913  3.19140237  6.30938783  1
  Mo  Mo28  1  4.72737030  4.79104285  7.90737677  1
  Mo  Mo29  1  3.14179997  6.30967038  0.06086563  1
  Mo  Mo30  1  4.76163747  7.93661462  1.53882943  1
  Mo  Mo31  1  3.20614024  6.29869948  3.15144984  1
  Mo  Mo32  1  4.82850432  7.89840758  4.78785239  1
  Mo  Mo33  1  3.16031926  6.33149577  6.31609913  1
  Mo  Mo34  1  4.75176041  7.99341311  7.91373590  1
  Mo  Mo35  1  6.36321706  -0.00360835  -0.06649198  1
  Mo  Mo36  1  7.94569030  1.58676005  1.57128757  1
  Mo  Mo37  1  6.27605865  -0.03835699  3.12729319  1
  Mo  Mo38  1  7.86871781  1.56029687  4.74336759  1
  Mo  Mo39  1  6.28295141  -0.01177315  6.30199143  1
  Mo  Mo40  1  7.92971119  1.55164356  7.90863076  1
  Mo  Mo41  1  6.30549658  3.17936950  0.05275628  1
  Mo  Mo42  1  7.96796329  4.70548046  1.61128317  1
  Mo  Mo43  1  6.26489683  3.16714943  3.16596174  1
  Mo  Mo44  1  7.84682663  4.72865124  4.74611242  1
  Mo  Mo45  1  6.29690820  3.19965296  6.34774267  1
  Mo  Mo46  1  7.85470879  4.72532353  7.97808377  1
  Mo  Mo47  1  6.29925754  6.34848128  0.04560543  1
  Mo  Mo48  1  7.96307383  7.87642980  1.57650217  1
  Mo  Mo49  1  6.36087959  6.34486353  3.16862714  1
  Mo  Mo50  1  8.00004491  7.89171194  4.75563377  1
  Mo  Mo51  1  6.34171146  6.34509876  6.33971478  1
  Mo  Mo52  1  7.97889024  7.87716212  7.94467850  1
