# generated using pymatgen
data_Mo
_symmetry_space_group_name_H-M   'P 1'
_cell_length_a   9.48969964
_cell_length_b   9.48969964
_cell_length_c   9.48969964
_cell_angle_alpha   90.00000000
_cell_angle_beta   90.00000000
_cell_angle_gamma   90.00000000
_symmetry_Int_Tables_number   1
_chemical_formula_structural   Mo
_chemical_formula_sum   Mo53
_cell_volume   854.58919962
_cell_formula_units_Z   53
loop_
 _symmetry_equiv_pos_site_id
 _symmetry_equiv_pos_as_xyz
  1  'x, y, z'
loop_
 _atom_site_type_symbol
 _atom_site_label
 _atom_site_symmetry_multiplicity
 _atom_site_fract_x
 _atom_site_fract_y
 _atom_site_fract_z
 _atom_site_occupancy
  Mo  Mo0  1  1.62801360  1.51939636  1.51088626  1
  Mo  Mo1  1  -0.01649233  0.03172250  3.13119446  1
  Mo  Mo2  1  1.50012938  1.56709604  4.76263879  1
  Mo  Mo3  1  -0.01316115  -0.02370245  6.30100295  1
  Mo  Mo4  1  1.49309283  1.55076483  7.94222270  1
  Mo  Mo5  1  0.00714899  3.13737018  0.05283249  1
  Mo  Mo6  1  1.60302708  4.74139666  1.50745164  1
  Mo  Mo7  1  -0.02095633  3.18955907  3.11850507  1
  Mo  Mo8  1  1.52750592  4.77628072  4.74976060  1
  Mo  Mo9  1  -0.00067131  3.13815548  6.28575442  1
  Mo  Mo10  1  1.51843453  4.68103088  7.94238453  1
  Mo  Mo11  1  0.03218471  6.39480750  0.04824612  1
  Mo  Mo12  1  1.62333499  7.84835633  1.55194934  1
  Mo  Mo13  1  0.05338124  6.32142643  3.18570722  1
  Mo  Mo14  1  1.61278201  7.93207752  4.72571289  1
  Mo  Mo15  1  -0.01941207  6.28484409  6.32947762  1
  Mo  Mo16  1  1.56396874  7.96899430  7.91096858  1
  Mo  Mo17  1  3.23153091  0.03799042  0.04139494  1
  Mo  Mo18  1  4.80034004  1.60191642  1.49278357  1
  Mo  Mo19  1  3.15794605  -0.01102920  3.18557074  1
  Mo  Mo20  1  4.71955215  1.61574313  4.70550423  1
  Mo  Mo21  1  3.23586234  -0.03798102  6.32267650  1
  Mo  Mo22  1  4.71723080  1.60415304  7.92486129  1
  Mo  Mo23  1  3.19047209  3.16744593  0.07534606  1
  Mo  Mo24  1  4.73266417  4.73853419  1.54400075  1
  Mo  Mo25  1  3.19079469  3.18180972  3.13637638  1
  Mo  Mo26  1  4.73686605  4.72475739  4.71243962  1
  Mo  Mo27  1  3.20818356  3.17194116  6.31060706  1
  Mo  Mo28  1  4.67217683  4.75450044  7.89853776  1
  Mo  Mo29  1  3.16986950  6.29091118  0.02872976  1
  Mo  Mo30  1  4.70157718  7.92832862  1.58114624  1
  Mo  Mo31  1  3.27285700  6.26688625  3.15063158  1
  Mo  Mo32  1  4.75054376  7.92515058  4.73367548  1
  Mo  Mo33  1  3.19465731  6.34049975  6.33251494  1
  Mo  Mo34  1  4.74835950  7.95934828  7.96076092  1
  Mo  Mo35  1  6.31005582  0.00053758  -0.05750080  1
  Mo  Mo36  1  7.88407819  1.60127762  1.57871233  1
  Mo  Mo37  1  6.27812248  -0.00039557  3.11612977  1
  Mo  Mo38  1  7.88117478  1.58043386  4.72897595  1
  Mo  Mo39  1  6.31085574  -0.04374127  6.26365268  1
  Mo  Mo40  1  7.88612570  1.52149938  7.92956279  1
  Mo  Mo41  1  6.29177901  3.22363122  0.02740320  1
  Mo  Mo42  1  7.97527114  4.74939959  1.60112375  1
  Mo  Mo43  1  6.32252562  3.18964837  3.21813736  1
  Mo  Mo44  1  7.82421156  4.77183426  4.73719686  1
  Mo  Mo45  1  6.26375738  3.17872160  6.37029075  1
  Mo  Mo46  1  7.92484724  4.66940189  7.97099417  1
  Mo  Mo47  1  6.30258360  6.33277545  0.02254650  1
  Mo  Mo48  1  7.93573064  7.90396906  1.59084226  1
  Mo  Mo49  1  6.33141354  6.33505161  3.19932202  1
  Mo  Mo50  1  8.02297900  7.91729474  4.75176916  1
  Mo  Mo51  1  6.30930537  6.33802789  6.36326579  1
  Mo  Mo52  1  7.93963222  7.92839282  7.91156475  1
