# generated using pymatgen
data_Mo
_symmetry_space_group_name_H-M   'P 1'
_cell_length_a   9.48969964
_cell_length_b   9.48969964
_cell_length_c   9.48969964
_cell_angle_alpha   90.00000000
_cell_angle_beta   90.00000000
_cell_angle_gamma   90.00000000
_symmetry_Int_Tables_number   1
_chemical_formula_structural   Mo
_chemical_formula_sum   Mo53
_cell_volume   854.58919962
_cell_formula_units_Z   53
loop_
 _symmetry_equiv_pos_site_id
 _symmetry_equiv_pos_as_xyz
  1  'x, y, z'
loop_
 _atom_site_type_symbol
 _atom_site_label
 _atom_site_symmetry_multiplicity
 _atom_site_fract_x
 _atom_site_fract_y
 _atom_site_fract_z
 _atom_site_occupancy
  Mo  Mo0  1  1.56755628  1.60533375  1.58328961  1
  Mo  Mo1  1  -0.03886287  0.00647585  3.18763961  1
  Mo  Mo2  1  1.61966599  1.46628398  4.78891513  1
  Mo  Mo3  1  0.01125321  -0.03513103  6.36766831  1
  Mo  Mo4  1  1.58856405  1.56666279  7.90203512  1
  Mo  Mo5  1  -0.00978340  3.20451946  -0.03489856  1
  Mo  Mo6  1  1.56898270  4.79667118  1.49732177  1
  Mo  Mo7  1  -0.00078831  3.13350209  3.21648136  1
  Mo  Mo8  1  1.54660290  4.74612651  4.77476983  1
  Mo  Mo9  1  -0.00959963  3.16631438  6.37141931  1
  Mo  Mo10  1  1.58394416  4.75062392  7.92713911  1
  Mo  Mo11  1  -0.00862774  6.34916422  -0.02898719  1
  Mo  Mo12  1  1.51469973  7.95131880  1.55460970  1
  Mo  Mo13  1  -0.07008587  6.30714551  3.10981214  1
  Mo  Mo14  1  1.50035789  7.92283267  4.70466060  1
  Mo  Mo15  1  -0.01211008  6.37993569  6.28267430  1
  Mo  Mo16  1  1.54705863  7.87488777  7.90282740  1
  Mo  Mo17  1  3.14612020  0.00213607  -0.00639677  1
  Mo  Mo18  1  4.73381256  1.52646056  1.55287436  1
  Mo  Mo19  1  3.16245878  -0.03268095  3.17429951  1
  Mo  Mo20  1  4.81503649  1.55091013  4.75079668  1
  Mo  Mo21  1  3.14259318  0.00563861  6.31391087  1
  Mo  Mo22  1  4.74343741  1.52240444  7.94093376  1
  Mo  Mo23  1  3.20411956  3.16459020  -0.01981673  1
  Mo  Mo24  1  4.77018582  4.76170490  1.60688079  1
  Mo  Mo25  1  3.16079024  3.22684028  3.17844153  1
  Mo  Mo26  1  4.78127482  4.70543410  4.73936949  1
  Mo  Mo27  1  3.21832809  3.20278898  6.31629751  1
  Mo  Mo28  1  4.76897253  4.74370798  7.92798262  1
  Mo  Mo29  1  3.19313370  6.29779142  0.06176739  1
  Mo  Mo30  1  4.75069456  7.95021019  1.60171082  1
  Mo  Mo31  1  3.10597518  6.32777335  3.15899347  1
  Mo  Mo32  1  4.74336304  7.88214972  4.83737256  1
  Mo  Mo33  1  3.12837100  6.31657321  6.30585335  1
  Mo  Mo34  1  4.74846806  7.93954322  7.93168942  1
  Mo  Mo35  1  6.34822144  -0.01688993  -0.05880732  1
  Mo  Mo36  1  8.01838866  1.59978579  1.61349191  1
  Mo  Mo37  1  6.30174098  -0.04485351  3.16168452  1
  Mo  Mo38  1  8.02455805  1.57781867  4.76051945  1
  Mo  Mo39  1  6.30688115  0.04137077  6.36836737  1
  Mo  Mo40  1  7.95912695  1.59224254  7.92821818  1
  Mo  Mo41  1  6.26005489  3.06860096  -0.00437431  1
  Mo  Mo42  1  7.98651196  4.73042108  1.58525746  1
  Mo  Mo43  1  6.29604293  3.17472652  3.13237991  1
  Mo  Mo44  1  7.93446110  4.75256252  4.69867624  1
  Mo  Mo45  1  6.34754657  3.19799429  6.27934617  1
  Mo  Mo46  1  7.85718384  4.80146710  7.90928574  1
  Mo  Mo47  1  6.33759258  6.27935398  -0.02525849  1
  Mo  Mo48  1  7.92750118  7.96370290  1.55582254  1
  Mo  Mo49  1  6.30909169  6.31487777  3.17027253  1
  Mo  Mo50  1  7.87273771  7.96570978  4.76327633  1
  Mo  Mo51  1  6.34855552  6.32449812  6.26370471  1
  Mo  Mo52  1  7.86608370  7.90820947  7.93604167  1
