# generated using pymatgen
data_Mo
_symmetry_space_group_name_H-M   'P 1'
_cell_length_a   9.48969964
_cell_length_b   9.48969964
_cell_length_c   9.48969964
_cell_angle_alpha   90.00000000
_cell_angle_beta   90.00000000
_cell_angle_gamma   90.00000000
_symmetry_Int_Tables_number   1
_chemical_formula_structural   Mo
_chemical_formula_sum   Mo53
_cell_volume   854.58919962
_cell_formula_units_Z   53
loop_
 _symmetry_equiv_pos_site_id
 _symmetry_equiv_pos_as_xyz
  1  'x, y, z'
loop_
 _atom_site_type_symbol
 _atom_site_label
 _atom_site_symmetry_multiplicity
 _atom_site_fract_x
 _atom_site_fract_y
 _atom_site_fract_z
 _atom_site_occupancy
  Mo  Mo0  1  1.63494790  1.58202094  1.50076853  1
  Mo  Mo1  1  0.00151264  -0.01655004  3.09428577  1
  Mo  Mo2  1  1.66682941  1.55413919  4.76329665  1
  Mo  Mo3  1  -0.03382899  0.01537073  6.34973574  1
  Mo  Mo4  1  1.61501030  1.55822602  7.86940486  1
  Mo  Mo5  1  0.00654471  3.14320629  0.02042793  1
  Mo  Mo6  1  1.58110141  4.77468707  1.56828175  1
  Mo  Mo7  1  0.01099253  3.20323548  3.20376324  1
  Mo  Mo8  1  1.56793757  4.76379708  4.75112176  1
  Mo  Mo9  1  0.05452323  3.25848302  6.32278022  1
  Mo  Mo10  1  1.59711024  4.74141697  7.89812051  1
  Mo  Mo11  1  0.02062643  6.36995656  0.01327894  1
  Mo  Mo12  1  1.52639657  7.99645091  1.52227411  1
  Mo  Mo13  1  -0.01906736  6.25770263  3.16017921  1
  Mo  Mo14  1  1.52864642  7.82765553  4.70624927  1
  Mo  Mo15  1  -0.07056180  6.24112715  6.30716560  1
  Mo  Mo16  1  1.57134610  7.89401508  7.93605235  1
  Mo  Mo17  1  3.08231000  0.03616028  0.01998436  1
  Mo  Mo18  1  4.79022471  1.56180217  1.55778348  1
  Mo  Mo19  1  3.10608737  0.03047646  3.19619532  1
  Mo  Mo20  1  4.77484038  1.56438650  4.75438773  1
  Mo  Mo21  1  3.20430406  -0.05914007  6.34560212  1
  Mo  Mo22  1  4.75339529  1.52456223  7.90296953  1
  Mo  Mo23  1  3.11477925  3.22320900  0.06164049  1
  Mo  Mo24  1  4.72009390  4.73835505  1.53003511  1
  Mo  Mo25  1  3.12465374  3.19744620  3.16993269  1
  Mo  Mo26  1  4.75121845  4.79309124  4.65865404  1
  Mo  Mo27  1  3.27752185  3.18560668  6.27836348  1
  Mo  Mo28  1  4.75997036  4.74889978  7.88618870  1
  Mo  Mo29  1  3.20078488  6.37351353  -0.02178345  1
  Mo  Mo30  1  4.70512383  7.98642863  1.60870488  1
  Mo  Mo31  1  3.20527133  6.32771099  3.15504213  1
  Mo  Mo32  1  4.69801657  7.94924691  4.70447095  1
  Mo  Mo33  1  3.21976190  6.30970802  6.32011825  1
  Mo  Mo34  1  4.71080840  7.86080752  8.03117279  1
  Mo  Mo35  1  6.37459584  -0.03420734  0.03779154  1
  Mo  Mo36  1  7.97368574  1.60660216  1.56098048  1
  Mo  Mo37  1  6.29058340  -0.01506097  3.16494264  1
  Mo  Mo38  1  7.94404287  1.58983155  4.81105551  1
  Mo  Mo39  1  6.33154090  -0.01094162  6.30254075  1
  Mo  Mo40  1  7.94879896  1.59253318  7.93790354  1
  Mo  Mo41  1  6.27239586  3.14264380  0.03605101  1
  Mo  Mo42  1  7.90436342  4.70865696  1.56013999  1
  Mo  Mo43  1  6.32248833  3.06077983  3.16932662  1
  Mo  Mo44  1  7.83860758  4.74960418  4.74468313  1
  Mo  Mo45  1  6.31878906  3.17839710  6.33922157  1
  Mo  Mo46  1  7.92631346  4.67172212  7.97014995  1
  Mo  Mo47  1  6.33216309  6.25850818  0.02065365  1
  Mo  Mo48  1  7.91140363  7.96071121  1.60072286  1
  Mo  Mo49  1  6.28856754  6.31633248  3.08363307  1
  Mo  Mo50  1  7.90091225  7.95882158  4.75381712  1
  Mo  Mo51  1  6.26350943  6.35050910  6.32734353  1
  Mo  Mo52  1  7.91624885  7.91558745  7.95063680  1
