# generated using pymatgen
data_Mo
_symmetry_space_group_name_H-M   'P 1'
_cell_length_a   9.48969964
_cell_length_b   9.48969964
_cell_length_c   9.48969964
_cell_angle_alpha   90.00000000
_cell_angle_beta   90.00000000
_cell_angle_gamma   90.00000000
_symmetry_Int_Tables_number   1
_chemical_formula_structural   Mo
_chemical_formula_sum   Mo53
_cell_volume   854.58919962
_cell_formula_units_Z   53
loop_
 _symmetry_equiv_pos_site_id
 _symmetry_equiv_pos_as_xyz
  1  'x, y, z'
loop_
 _atom_site_type_symbol
 _atom_site_label
 _atom_site_symmetry_multiplicity
 _atom_site_fract_x
 _atom_site_fract_y
 _atom_site_fract_z
 _atom_site_occupancy
  Mo  Mo0  1  1.57830958  1.62267167  1.53308078  1
  Mo  Mo1  1  0.02587036  -0.01472453  3.13753051  1
  Mo  Mo2  1  1.49735379  1.59961956  4.75942500  1
  Mo  Mo3  1  0.03102845  0.03314235  6.34650739  1
  Mo  Mo4  1  1.56216875  1.58701218  7.90220957  1
  Mo  Mo5  1  0.04983394  3.14861117  0.02928700  1
  Mo  Mo6  1  1.59615100  4.78736362  1.58899690  1
  Mo  Mo7  1  -0.04297642  3.13584695  3.19741686  1
  Mo  Mo8  1  1.63034886  4.77865923  4.70989389  1
  Mo  Mo9  1  0.02876104  3.20225901  6.30299029  1
  Mo  Mo10  1  1.56259363  4.77417369  7.91943259  1
  Mo  Mo11  1  -0.00991958  6.34457703  -0.04403597  1
  Mo  Mo12  1  1.63216381  7.96602732  1.58229542  1
  Mo  Mo13  1  -0.03070604  6.29123849  3.11184349  1
  Mo  Mo14  1  1.57392288  7.96624900  4.87221865  1
  Mo  Mo15  1  -0.02194339  6.33039909  6.28520207  1
  Mo  Mo16  1  1.50093720  7.96101677  7.90853804  1
  Mo  Mo17  1  3.12028116  -0.01638183  -0.01180051  1
  Mo  Mo18  1  4.70777213  1.55506072  1.53425764  1
  Mo  Mo19  1  3.06113994  -0.01782494  3.18919146  1
  Mo  Mo20  1  4.68016966  1.55067775  4.75085000  1
  Mo  Mo21  1  3.16186528  -0.03669571  6.35201486  1
  Mo  Mo22  1  4.71772348  1.51708040  7.90863337  1
  Mo  Mo23  1  3.14772367  3.14865472  0.03197753  1
  Mo  Mo24  1  4.77164133  4.64939467  1.57913480  1
  Mo  Mo25  1  3.16597731  3.11103066  3.21813245  1
  Mo  Mo26  1  4.80865153  4.79527305  4.68135010  1
  Mo  Mo27  1  3.14942272  3.18326903  6.36296975  1
  Mo  Mo28  1  4.72660446  4.71519265  7.95303979  1
  Mo  Mo29  1  3.09978611  6.27059951  0.07854771  1
  Mo  Mo30  1  4.75285651  7.93541396  1.57739451  1
  Mo  Mo31  1  3.11815452  6.36665316  3.16363657  1
  Mo  Mo32  1  4.77626358  7.95319786  4.68066346  1
  Mo  Mo33  1  3.21535187  6.28780694  6.33969851  1
  Mo  Mo34  1  4.78170012  7.92824530  8.02098017  1
  Mo  Mo35  1  6.32527456  0.05997793  0.00403585  1
  Mo  Mo36  1  7.97197625  1.52172739  1.50299696  1
  Mo  Mo37  1  6.37337968  -0.01759275  3.16398749  1
  Mo  Mo38  1  7.95354613  1.51035175  4.73640675  1
  Mo  Mo39  1  6.33421443  -0.02381728  6.31932566  1
  Mo  Mo40  1  7.81824609  1.65618404  7.86619497  1
  Mo  Mo41  1  6.35360924  3.17531903  0.00697974  1
  Mo  Mo42  1  7.99072595  4.70945951  1.54047271  1
  Mo  Mo43  1  6.35285660  3.08634264  3.19937480  1
  Mo  Mo44  1  7.90353572  4.69853926  4.73013522  1
  Mo  Mo45  1  6.27044431  3.19337830  6.28740779  1
  Mo  Mo46  1  7.92919695  4.77883256  7.91364999  1
  Mo  Mo47  1  6.29170287  6.36258291  0.01733411  1
  Mo  Mo48  1  7.98821654  7.93934879  1.57801726  1
  Mo  Mo49  1  6.35422449  6.28220491  3.11484121  1
  Mo  Mo50  1  7.99526496  7.87469711  4.73148231  1
  Mo  Mo51  1  6.28335290  6.35855301  6.31524746  1
  Mo  Mo52  1  7.90149285  7.94136317  7.93684783  1
