# generated using pymatgen
data_Mo
_symmetry_space_group_name_H-M   'P 1'
_cell_length_a   9.55355031
_cell_length_b   12.79499716
_cell_length_c   15.94081511
_cell_angle_alpha   90.00000000
_cell_angle_beta   90.00000000
_cell_angle_gamma   90.00000000
_symmetry_Int_Tables_number   1
_chemical_formula_structural   Mo
_chemical_formula_sum   Mo121
_cell_volume   1948.56776392
_cell_formula_units_Z   121
loop_
 _symmetry_equiv_pos_site_id
 _symmetry_equiv_pos_as_xyz
  1  'x, y, z'
loop_
 _atom_site_type_symbol
 _atom_site_label
 _atom_site_symmetry_multiplicity
 _atom_site_fract_x
 _atom_site_fract_y
 _atom_site_fract_z
 _atom_site_occupancy
  Mo  Mo0  1  1.74479838  1.70959877  1.75458873  1
  Mo  Mo1  1  0.05096178  -0.00933191  3.16539298  1
  Mo  Mo2  1  -0.03859863  3.17276057  -0.04011097  1
  Mo  Mo3  1  1.56516619  4.75926497  1.53066164  1
  Mo  Mo4  1  3.25675309  0.04971654  -0.05858059  1
  Mo  Mo5  1  -0.00658007  6.37407800  0.07118910  1
  Mo  Mo6  1  3.26792363  3.20701689  3.22764018  1
  Mo  Mo7  1  0.45382670  0.31059955  0.38506385  1
  Mo  Mo8  1  3.25716019  3.08088413  6.35514269  1
  Mo  Mo9  1  3.16781574  -0.03816382  6.32232613  1
  Mo  Mo10  1  1.54540675  1.60496310  4.81972489  1
  Mo  Mo11  1  0.01920230  -0.12089203  6.40383631  1
  Mo  Mo12  1  1.54783944  4.74196801  4.65119373  1
  Mo  Mo13  1  -0.02309372  3.08022879  6.34509417  1
  Mo  Mo14  1  1.60689932  1.54387763  7.96869469  1
  Mo  Mo15  1  1.50515309  1.61212217  11.10957206  1
  Mo  Mo16  1  1.55013313  4.65011143  7.90830428  1
  Mo  Mo17  1  1.56137317  4.70439528  11.14392767  1
  Mo  Mo18  1  3.17924445  3.10796152  9.47775003  1
  Mo  Mo19  1  4.77510231  1.56641729  11.03549898  1
  Mo  Mo20  1  4.77991805  4.81342967  11.10162857  1
  Mo  Mo21  1  3.17202580  6.31838418  9.43611619  1
  Mo  Mo22  1  3.22017330  3.16988105  12.73977561  1
  Mo  Mo23  1  4.70970750  4.78895378  14.29630325  1
  Mo  Mo24  1  4.77901448  1.59594723  14.23911009  1
  Mo  Mo25  1  1.58358517  4.73718206  14.38149722  1
  Mo  Mo26  1  1.60504253  1.54963666  14.25092604  1
  Mo  Mo27  1  3.11740434  6.30123616  12.72190275  1
  Mo  Mo28  1  3.12367970  3.09258093  15.92323011  1
  Mo  Mo29  1  1.64427346  7.89772950  1.59316701  1
  Mo  Mo30  1  0.04557907  6.30127588  3.13752124  1
  Mo  Mo31  1  1.62357073  11.08981262  1.51560872  1
  Mo  Mo32  1  0.00677760  9.54157600  3.28478369  1
  Mo  Mo33  1  3.28041477  6.27477439  -0.09543999  1
  Mo  Mo34  1  3.19467468  6.29287563  3.17521312  1
  Mo  Mo35  1  3.15036984  12.83807635  3.19053414  1
  Mo  Mo36  1  3.09227312  9.61067447  3.09367316  1
  Mo  Mo37  1  3.13236790  6.27114024  6.30110708  1
  Mo  Mo38  1  3.14557396  9.55852543  6.26328612  1
  Mo  Mo39  1  1.57134226  7.94465569  4.79143612  1
  Mo  Mo40  1  -0.08714529  6.37061265  6.26931324  1
  Mo  Mo41  1  1.50608645  11.23031317  4.73819485  1
  Mo  Mo42  1  0.01968994  9.56742214  6.33402293  1
  Mo  Mo43  1  1.51502288  7.84896638  7.93830090  1
  Mo  Mo44  1  1.63743213  11.08276277  7.92860984  1
  Mo  Mo45  1  4.67695051  7.86960953  7.86262919  1
  Mo  Mo46  1  4.69002749  11.13707641  7.86425760  1
  Mo  Mo47  1  3.20591473  12.66331948  9.52222366  1
  Mo  Mo48  1  1.53441494  7.82760831  11.12317529  1
  Mo  Mo49  1  1.54510887  11.10639466  11.03003783  1
  Mo  Mo50  1  3.10873601  9.48085792  9.52276978  1
  Mo  Mo51  1  4.79565610  11.15147399  11.05873370  1
  Mo  Mo52  1  4.57085522  7.77707776  10.94335445  1
  Mo  Mo53  1  3.10628345  9.56999385  12.76449973  1
  Mo  Mo54  1  3.17215488  12.79200408  12.65299294  1
  Mo  Mo55  1  4.73891970  11.09150061  14.32539630  1
  Mo  Mo56  1  4.72117592  7.97345086  14.21736478  1
  Mo  Mo57  1  1.56621870  11.10867842  14.29421808  1
  Mo  Mo58  1  1.54100804  7.91990178  14.29670042  1
  Mo  Mo59  1  -0.00336970  9.44463559  12.54823811  1
  Mo  Mo60  1  3.16593909  9.52796284  15.98707594  1
  Mo  Mo61  1  4.78645158  1.59956152  1.46351926  1
  Mo  Mo62  1  4.81074874  4.71070043  1.62756234  1
  Mo  Mo63  1  9.51521353  3.13535664  3.13329133  1
  Mo  Mo64  1  7.97163378  1.54169317  1.49183781  1
  Mo  Mo65  1  6.31253578  -0.02952587  3.16735899  1
  Mo  Mo66  1  6.32217719  3.18837946  -0.10693432  1
  Mo  Mo67  1  7.87581539  4.89143478  1.62916096  1
  Mo  Mo68  1  6.37504115  3.15932613  3.06383541  1
  Mo  Mo69  1  4.80529752  1.55642835  4.79409719  1
  Mo  Mo70  1  4.73056910  4.70490168  4.82356755  1
  Mo  Mo71  1  7.95139773  1.56194908  4.73002298  1
  Mo  Mo72  1  6.37965830  -0.06700188  6.32412335  1
  Mo  Mo73  1  7.94370247  4.72943715  4.79112831  1
  Mo  Mo74  1  6.40303203  3.10132870  6.35552994  1
  Mo  Mo75  1  4.79640080  1.53237942  7.85439774  1
  Mo  Mo76  1  4.72767965  4.71624102  7.89770964  1
  Mo  Mo77  1  7.98576327  1.54114705  7.95489287  1
  Mo  Mo78  1  7.87661967  1.50626518  11.11791273  1
  Mo  Mo79  1  7.89806710  4.68867710  7.92824245  1
  Mo  Mo80  1  6.37568655  3.19288740  9.55805875  1
  Mo  Mo81  1  7.92553173  4.68606567  11.06836519  1
  Mo  Mo82  1  9.46077081  3.09274973  9.50716081  1
  Mo  Mo83  1  6.36688914  6.24266282  9.49005251  1
  Mo  Mo84  1  9.54280724  6.30059075  9.45750405  1
  Mo  Mo85  1  7.99943601  4.76061536  14.30285663  1
  Mo  Mo86  1  6.30728314  3.19376118  12.77442910  1
  Mo  Mo87  1  9.47884226  3.12437476  12.73421516  1
  Mo  Mo88  1  8.03293770  1.65555322  14.34863102  1
  Mo  Mo89  1  6.35891585  0.08487167  12.65914914  1
  Mo  Mo90  1  9.55815804  6.26906501  12.70124966  1
  Mo  Mo91  1  6.42066659  6.23098588  12.67940505  1
  Mo  Mo92  1  6.35704913  6.39693540  15.87715784  1
  Mo  Mo93  1  4.81745106  7.97297425  1.62912125  1
  Mo  Mo94  1  4.70000650  11.23974607  1.45786945  1
  Mo  Mo95  1  8.02470625  7.99805583  1.62390833  1
  Mo  Mo96  1  6.34829143  6.28951950  3.21400716  1
  Mo  Mo97  1  6.48831537  9.51276098  0.01852542  1
  Mo  Mo98  1  7.93379296  11.10530243  1.52611399  1
  Mo  Mo99  1  6.31315140  9.57129460  3.19527044  1
  Mo  Mo100  1  6.23824425  9.47834579  6.32199846  1
  Mo  Mo101  1  4.70607335  7.90841350  4.71950778  1
  Mo  Mo102  1  4.67021840  11.26377514  4.69661066  1
  Mo  Mo103  1  7.86296679  7.93806259  4.73337911  1
  Mo  Mo104  1  6.30673703  6.24746863  6.34913543  1
  Mo  Mo105  1  7.93954207  11.12903362  4.71921983  1
  Mo  Mo106  1  7.89589257  8.04393944  7.90928729  1
  Mo  Mo107  1  7.84581877  11.15743161  7.85951137  1
  Mo  Mo108  1  9.53340413  9.51824199  9.39266528  1
  Mo  Mo109  1  7.90643756  7.87747359  11.00054761  1
  Mo  Mo110  1  9.54050363  12.67046862  9.53427792  1
  Mo  Mo111  1  6.32615887  9.54417749  9.40489826  1
  Mo  Mo112  1  7.96914151  11.14660860  11.05893229  1
  Mo  Mo113  1  6.28860600  12.84026081  9.50720053  1
  Mo  Mo114  1  8.59292423  11.91921268  15.00049399  1
  Mo  Mo115  1  7.27014383  10.51629236  13.70401648  1
  Mo  Mo116  1  6.03995478  9.13280380  12.22007252  1
  Mo  Mo117  1  7.97601264  7.89250666  14.23513835  1
  Mo  Mo118  1  9.55977653  12.68724925  12.63204197  1
  Mo  Mo119  1  9.54672934  9.35562874  15.93474817  1
  Mo  Mo120  1  6.23249515  12.73143494  15.74837394  1
