# generated using pymatgen
data_Mo
_symmetry_space_group_name_H-M   'P 1'
_cell_length_a   9.50679184
_cell_length_b   12.61932389
_cell_length_c   15.86714805
_cell_angle_alpha   90.00000000
_cell_angle_beta   90.00000000
_cell_angle_gamma   90.00000000
_symmetry_Int_Tables_number   1
_chemical_formula_structural   Mo
_chemical_formula_sum   Mo121
_cell_volume   1903.57041157
_cell_formula_units_Z   121
loop_
 _symmetry_equiv_pos_site_id
 _symmetry_equiv_pos_as_xyz
  1  'x, y, z'
loop_
 _atom_site_type_symbol
 _atom_site_label
 _atom_site_symmetry_multiplicity
 _atom_site_fract_x
 _atom_site_fract_y
 _atom_site_fract_z
 _atom_site_occupancy
  Mo  Mo0  1  4.77372213  1.60006792  1.54452304  1
  Mo  Mo1  1  1.52735516  4.70465345  1.51953082  1
  Mo  Mo2  1  1.58354545  2.13860702  0.56942440  1
  Mo  Mo3  1  1.56840316  1.14009990  2.65010845  1
  Mo  Mo4  1  3.17089385  3.08851981  3.19995711  1
  Mo  Mo5  1  3.23372688  3.22361879  6.35432849  1
  Mo  Mo6  1  1.60437726  4.67026805  4.73073790  1
  Mo  Mo7  1  1.62210118  1.56460022  5.06577461  1
  Mo  Mo8  1  1.62373953  1.50418002  8.00962354  1
  Mo  Mo9  1  1.50445804  1.61644144  11.03400957  1
  Mo  Mo10  1  1.58797395  4.75132148  7.93959172  1
  Mo  Mo11  1  1.65935617  4.72146387  11.08236559  1
  Mo  Mo12  1  3.14622930  3.20655021  9.42651449  1
  Mo  Mo13  1  3.26172770  3.21950803  12.57653681  1
  Mo  Mo14  1  1.59660257  1.60304673  13.98452111  1
  Mo  Mo15  1  1.61385981  4.75773585  14.14835567  1
  Mo  Mo16  1  3.45373188  3.31468102  15.60876704  1
  Mo  Mo17  1  -0.01946414  6.41815446  -0.00711973  1
  Mo  Mo18  1  1.56131360  7.96794006  1.60971926  1
  Mo  Mo19  1  0.00386947  6.32154171  3.17189671  1
  Mo  Mo20  1  -0.14503132  9.46518938  -0.03370007  1
  Mo  Mo21  1  1.64789768  11.07491857  1.50446797  1
  Mo  Mo22  1  -0.04655731  9.50654519  3.06509644  1
  Mo  Mo23  1  3.07298035  6.36639267  0.06043946  1
  Mo  Mo24  1  3.16775617  6.26662238  3.15036984  1
  Mo  Mo25  1  3.11169496  9.49770806  -0.02990775  1
  Mo  Mo26  1  3.09564910  9.48356864  3.20286641  1
  Mo  Mo27  1  4.65318954  7.84451802  1.47487845  1
  Mo  Mo28  1  3.41041005  12.44129882  3.35404103  1
  Mo  Mo29  1  1.49746776  7.87851618  4.69924194  1
  Mo  Mo30  1  -0.01667707  6.26878698  6.33316900  1
  Mo  Mo31  1  1.57017059  11.06498920  4.82143274  1
  Mo  Mo32  1  0.01907153  9.49390511  6.35833002  1
  Mo  Mo33  1  3.05996295  6.28601444  6.28446546  1
  Mo  Mo34  1  3.13469137  9.45772249  6.30627035  1
  Mo  Mo35  1  4.60169584  7.95746458  4.73856224  1
  Mo  Mo36  1  3.18530136  12.62975822  6.42574050  1
  Mo  Mo37  1  1.56387537  7.86643214  7.79097887  1
  Mo  Mo38  1  1.60873625  7.89358896  11.01077485  1
  Mo  Mo39  1  1.61133775  11.06628002  7.95704754  1
  Mo  Mo40  1  1.55971497  10.99280270  11.03341381  1
  Mo  Mo41  1  3.17850967  6.34397216  9.56055102  1
  Mo  Mo42  1  3.06129349  9.43470622  9.45531959  1
  Mo  Mo43  1  4.73658629  7.84897631  7.93447809  1
  Mo  Mo44  1  4.77557892  7.92219546  11.08236559  1
  Mo  Mo45  1  3.23850291  12.61009807  9.52887634  1
  Mo  Mo46  1  3.22787849  9.45771256  12.65021271  1
  Mo  Mo47  1  3.20754314  6.31567346  12.61039595  1
  Mo  Mo48  1  0.04168487  6.35261070  12.72021475  1
  Mo  Mo49  1  1.55360841  7.89549539  14.24536559  1
  Mo  Mo50  1  0.06254558  9.48593183  12.56849402  1
  Mo  Mo51  1  1.60493331  11.05277608  14.23007437  1
  Mo  Mo52  1  4.63918913  7.88115739  14.27306853  1
  Mo  Mo53  1  3.20941979  12.55578443  12.52917372  1
  Mo  Mo54  1  3.13469137  12.64187205  15.80070171  1
  Mo  Mo55  1  4.74724051  4.72587251  1.57047840  1
  Mo  Mo56  1  6.27073314  0.00223361  -0.05288729  1
  Mo  Mo57  1  8.04817928  1.55702411  1.56649673  1
  Mo  Mo58  1  6.41035991  0.02949231  3.26775483  1
  Mo  Mo59  1  6.42409222  3.12763159  -0.04450263  1
  Mo  Mo60  1  7.85335516  4.70761240  1.56248526  1
  Mo  Mo61  1  6.34671266  3.08263170  3.20681830  1
  Mo  Mo62  1  9.51701075  3.17893663  3.21252768  1
  Mo  Mo63  1  6.40645766  3.13179200  6.33438039  1
  Mo  Mo64  1  4.75978130  1.58306884  4.78473380  1
  Mo  Mo65  1  4.74505604  4.82443141  4.70625208  1
  Mo  Mo66  1  7.94431809  1.57772684  4.80549610  1
  Mo  Mo67  1  7.89141442  4.72904990  4.76695030  1
  Mo  Mo68  1  9.51560078  3.19591585  6.50557261  1
  Mo  Mo69  1  4.75646489  1.61811951  7.98135464  1
  Mo  Mo70  1  4.74629722  1.54718411  11.05098879  1
  Mo  Mo71  1  4.85222371  4.76596729  7.83847104  1
  Mo  Mo72  1  4.77160717  4.77712790  10.97344043  1
  Mo  Mo73  1  7.84953235  1.54479113  7.96178385  1
  Mo  Mo74  1  7.97162385  1.68709882  11.02676114  1
  Mo  Mo75  1  7.94095204  4.76958158  7.90612975  1
  Mo  Mo76  1  6.32382547  3.16167939  9.41525459  1
  Mo  Mo77  1  7.89301305  4.84416106  11.00253348  1
  Mo  Mo78  1  9.43082384  3.30063096  9.50992118  1
  Mo  Mo79  1  9.47842522  3.37117912  12.64763108  1
  Mo  Mo80  1  4.83741902  1.58226456  14.17427132  1
  Mo  Mo81  1  4.79958813  4.87734501  14.22838638  1
  Mo  Mo82  1  7.87133724  1.67233385  14.17029958  1
  Mo  Mo83  1  6.34415088  3.14220790  12.52500339  1
  Mo  Mo84  1  7.89082859  4.86544962  14.23692563  1
  Mo  Mo85  1  9.25054624  3.38210142  15.69584759  1
  Mo  Mo86  1  4.82825421  11.06776942  1.68153838  1
  Mo  Mo87  1  6.38824720  6.40519663  -0.02559523  1
  Mo  Mo88  1  7.95429711  7.87483238  1.66583012  1
  Mo  Mo89  1  6.32033033  6.26469609  3.15552319  1
  Mo  Mo90  1  6.17435870  9.44148798  0.04376706  1
  Mo  Mo91  1  7.85060472  11.04026508  1.39420234  1
  Mo  Mo92  1  6.25921507  9.42523360  3.17957211  1
  Mo  Mo93  1  9.29120700  12.33008991  3.42043871  1
  Mo  Mo94  1  6.36948070  9.44621436  6.33504565  1
  Mo  Mo95  1  7.79702586  10.90075746  4.78644165  1
  Mo  Mo96  1  4.85975017  11.05754218  4.85822105  1
  Mo  Mo97  1  7.86989749  7.91565201  4.78271814  1
  Mo  Mo98  1  6.25918529  6.39164305  6.28415765  1
  Mo  Mo99  1  6.34350547  12.58706194  6.42303971  1
  Mo  Mo100  1  9.36881494  12.64584379  6.37504115  1
  Mo  Mo101  1  4.75697129  11.04592482  7.93952221  1
  Mo  Mo102  1  4.66787507  11.02318656  11.01663318  1
  Mo  Mo103  1  7.91619813  7.89394641  7.92633601  1
  Mo  Mo104  1  6.30618098  6.33609817  9.43492466  1
  Mo  Mo105  1  7.82671467  7.96952876  11.05416619  1
  Mo  Mo106  1  7.85092246  11.11880637  7.88779021  1
  Mo  Mo107  1  6.35422919  9.48320125  9.49732081  1
  Mo  Mo108  1  7.86719670  11.10003987  11.02318656  1
  Mo  Mo109  1  9.52222366  6.31850333  9.49146248  1
  Mo  Mo110  1  9.44062412  9.55852543  9.42272147  1
  Mo  Mo111  1  6.28162566  12.67017074  9.54955921  1
  Mo  Mo112  1  9.58625815  12.51229380  9.52380243  1
  Mo  Mo113  1  7.96607334  11.04115872  14.21547820  1
  Mo  Mo114  1  6.35997830  9.41304034  12.62469424  1
  Mo  Mo115  1  7.93984988  7.95090127  14.32202031  1
  Mo  Mo116  1  4.78479337  11.04532905  14.26830243  1
  Mo  Mo117  1  6.30421497  6.33357611  12.64465227  1
  Mo  Mo118  1  6.28667970  12.57187000  12.63859535  1
  Mo  Mo119  1  9.43862832  12.61267970  12.60175740  1
  Mo  Mo120  1  9.44585690  12.70949104  15.67956343  1
