# generated using pymatgen
data_Mo
_symmetry_space_group_name_H-M   'P 1'
_cell_length_a   9.48969964
_cell_length_b   9.48969964
_cell_length_c   9.48969964
_cell_angle_alpha   90.00000000
_cell_angle_beta   90.00000000
_cell_angle_gamma   90.00000000
_symmetry_Int_Tables_number   1
_chemical_formula_structural   Mo
_chemical_formula_sum   Mo53
_cell_volume   854.58919962
_cell_formula_units_Z   53
loop_
 _symmetry_equiv_pos_site_id
 _symmetry_equiv_pos_as_xyz
  1  'x, y, z'
loop_
 _atom_site_type_symbol
 _atom_site_label
 _atom_site_symmetry_multiplicity
 _atom_site_fract_x
 _atom_site_fract_y
 _atom_site_fract_z
 _atom_site_occupancy
  Mo  Mo0  1  1.61065275  1.50614678  1.54923238  1
  Mo  Mo1  1  -0.00630635  0.03037052  3.11340549  1
  Mo  Mo2  1  1.62483815  1.50856332  4.72454920  1
  Mo  Mo3  1  0.07673805  0.02469286  6.30768451  1
  Mo  Mo4  1  1.58478820  1.51212807  7.89661563  1
  Mo  Mo5  1  -0.02660786  3.09421522  0.01432211  1
  Mo  Mo6  1  1.56069240  4.75946361  1.49192344  1
  Mo  Mo7  1  0.01622457  3.19213634  3.21517712  1
  Mo  Mo8  1  1.56249867  4.73172861  4.75406238  1
  Mo  Mo9  1  0.01666694  3.20303886  6.30517267  1
  Mo  Mo10  1  1.52829471  4.73380976  7.91476755  1
  Mo  Mo11  1  0.05041761  6.32599091  0.05880542  1
  Mo  Mo12  1  1.58063213  7.90301763  1.58398550  1
  Mo  Mo13  1  0.01255151  6.30801119  3.13734390  1
  Mo  Mo14  1  1.51915249  7.91380035  4.68806756  1
  Mo  Mo15  1  -0.00004999  6.34674119  6.35539441  1
  Mo  Mo16  1  1.57930214  7.95060314  7.97524096  1
  Mo  Mo17  1  3.15147309  0.02236756  0.04319748  1
  Mo  Mo18  1  4.80896027  1.61651795  1.52508445  1
  Mo  Mo19  1  3.19365717  0.04781415  3.14801295  1
  Mo  Mo20  1  4.76746178  1.63507516  4.70583703  1
  Mo  Mo21  1  3.15696950  0.05968920  6.31492183  1
  Mo  Mo22  1  4.76775643  1.54673697  7.92472038  1
  Mo  Mo23  1  3.18659127  3.22771229  -0.03872729  1
  Mo  Mo24  1  4.70513414  4.81950701  1.54715404  1
  Mo  Mo25  1  3.17627365  3.19429198  3.12891068  1
  Mo  Mo26  1  4.74557085  4.74899322  4.77093316  1
  Mo  Mo27  1  3.19102366  3.15101683  6.33471882  1
  Mo  Mo28  1  4.73283961  4.69747935  7.88144184  1
  Mo  Mo29  1  3.22973886  6.35780235  -0.03986996  1
  Mo  Mo30  1  4.70627885  7.92469061  1.57829095  1
  Mo  Mo31  1  3.20919575  6.25984097  3.17736783  1
  Mo  Mo32  1  4.71015476  7.92279279  4.79365270  1
  Mo  Mo33  1  3.10441708  6.30734153  6.31561038  1
  Mo  Mo34  1  4.70612615  7.95194257  7.96722555  1
  Mo  Mo35  1  6.35489861  -0.04055303  -0.06063560  1
  Mo  Mo36  1  7.93316432  1.60163256  1.56831753  1
  Mo  Mo37  1  6.29220995  -0.01181380  3.14607885  1
  Mo  Mo38  1  7.98339087  1.60039977  4.74310945  1
  Mo  Mo39  1  6.25366217  -0.04509166  6.31532155  1
  Mo  Mo40  1  7.94735274  1.51962672  7.98004203  1
  Mo  Mo41  1  6.27153566  3.19838548  -0.01554640  1
  Mo  Mo42  1  7.88192730  4.80318695  1.61798241  1
  Mo  Mo43  1  6.32907119  3.20734260  3.12195713  1
  Mo  Mo44  1  7.84896706  4.72019741  4.74649748  1
  Mo  Mo45  1  6.35126819  3.14749511  6.32861359  1
  Mo  Mo46  1  7.92136313  4.65752595  7.99097164  1
  Mo  Mo47  1  6.34972513  6.31630345  -0.03194608  1
  Mo  Mo48  1  7.85664323  7.88933428  1.65564938  1
  Mo  Mo49  1  6.30374294  6.31444755  3.20060291  1
  Mo  Mo50  1  7.86300765  7.96901433  4.75986141  1
  Mo  Mo51  1  6.30468686  6.28577723  6.36134728  1
  Mo  Mo52  1  7.93151778  7.84896104  7.92578516  1
