# generated using pymatgen
data_Mo
_symmetry_space_group_name_H-M   'P 1'
_cell_length_a   9.48969964
_cell_length_b   9.48969964
_cell_length_c   9.48969964
_cell_angle_alpha   90.00000000
_cell_angle_beta   90.00000000
_cell_angle_gamma   90.00000000
_symmetry_Int_Tables_number   1
_chemical_formula_structural   Mo
_chemical_formula_sum   Mo53
_cell_volume   854.58919962
_cell_formula_units_Z   53
loop_
 _symmetry_equiv_pos_site_id
 _symmetry_equiv_pos_as_xyz
  1  'x, y, z'
loop_
 _atom_site_type_symbol
 _atom_site_label
 _atom_site_symmetry_multiplicity
 _atom_site_fract_x
 _atom_site_fract_y
 _atom_site_fract_z
 _atom_site_occupancy
  Mo  Mo0  1  1.59722893  1.57391647  1.52385279  1
  Mo  Mo1  1  -0.02177927  -0.03073237  3.05829824  1
  Mo  Mo2  1  1.59900636  1.51879837  4.70680346  1
  Mo  Mo3  1  -0.01862581  -0.00968779  6.34513205  1
  Mo  Mo4  1  1.58173216  1.51115397  7.97763358  1
  Mo  Mo5  1  0.02686656  3.14167210  0.08663124  1
  Mo  Mo6  1  1.55984389  4.73960550  1.58298777  1
  Mo  Mo7  1  -0.04699926  3.16576694  3.15009604  1
  Mo  Mo8  1  1.58632833  4.70788536  4.68494687  1
  Mo  Mo9  1  0.04247515  3.14071451  6.37983188  1
  Mo  Mo10  1  1.53451797  4.70139104  7.89211948  1
  Mo  Mo11  1  0.02348550  6.36200607  -0.06157440  1
  Mo  Mo12  1  1.51489571  7.98681327  1.47848465  1
  Mo  Mo13  1  -0.02970549  6.32325388  3.16509655  1
  Mo  Mo14  1  1.52435312  7.84862191  4.77096171  1
  Mo  Mo15  1  0.03089102  6.31379861  6.27345358  1
  Mo  Mo16  1  1.48145925  7.92334744  7.86848285  1
  Mo  Mo17  1  3.17910391  0.03353860  -0.03048747  1
  Mo  Mo18  1  4.72516773  1.60944529  1.55546998  1
  Mo  Mo19  1  3.07778548  -0.04631163  3.16942626  1
  Mo  Mo20  1  4.79641529  1.55508335  4.73931646  1
  Mo  Mo21  1  3.20065021  -0.00921800  6.31308990  1
  Mo  Mo22  1  4.77415477  1.51846586  7.89157242  1
  Mo  Mo23  1  3.09755968  3.21209535  0.01812690  1
  Mo  Mo24  1  4.76429691  4.70100209  1.54858331  1
  Mo  Mo25  1  3.16019734  3.15587862  3.16548601  1
  Mo  Mo26  1  4.78739798  4.79084240  4.69068930  1
  Mo  Mo27  1  3.15461086  3.18397145  6.30557350  1
  Mo  Mo28  1  4.73926137  4.72347862  7.90601635  1
  Mo  Mo29  1  3.15152530  6.34618154  -0.00591565  1
  Mo  Mo30  1  4.71122817  7.96068318  1.63234304  1
  Mo  Mo31  1  3.07796886  6.36945101  3.14318194  1
  Mo  Mo32  1  4.69086216  7.97291212  4.71923930  1
  Mo  Mo33  1  3.22365189  6.32402916  6.30791039  1
  Mo  Mo34  1  4.73910903  7.87212685  7.95231737  1
  Mo  Mo35  1  6.32588475  -0.00580868  0.04777432  1
  Mo  Mo36  1  7.89447823  1.57620493  1.56163303  1
  Mo  Mo37  1  6.29382736  0.06266280  3.15716720  1
  Mo  Mo38  1  8.02744729  1.56241492  4.79476313  1
  Mo  Mo39  1  6.40022124  0.02130482  6.27947728  1
  Mo  Mo40  1  7.94709628  1.48966290  7.95403641  1
  Mo  Mo41  1  6.36012093  3.12235126  -0.02467538  1
  Mo  Mo42  1  7.97258508  4.74973012  1.62424700  1
  Mo  Mo43  1  6.33579499  3.20583674  3.17451358  1
  Mo  Mo44  1  7.98454973  4.81073313  4.85502276  1
  Mo  Mo45  1  6.32964308  3.14118341  6.27934330  1
  Mo  Mo46  1  7.96586489  4.69258325  7.98913275  1
  Mo  Mo47  1  6.32108154  6.27017024  -0.00107271  1
  Mo  Mo48  1  7.89891435  7.97887593  1.61902079  1
  Mo  Mo49  1  6.28373303  6.38288290  3.18568230  1
  Mo  Mo50  1  7.92883840  7.98995915  4.79814254  1
  Mo  Mo51  1  6.30766520  6.34228975  6.35603860  1
  Mo  Mo52  1  7.90357630  7.93322408  7.96281822  1
