# generated using pymatgen
data_Mo
_symmetry_space_group_name_H-M   'P 1'
_cell_length_a   9.46603805
_cell_length_b   9.46603785
_cell_length_c   9.46603779
_cell_angle_alpha   90.00000282
_cell_angle_beta   89.99999931
_cell_angle_gamma   89.99999840
_symmetry_Int_Tables_number   1
_chemical_formula_structural   Mo
_chemical_formula_sum   Mo53
_cell_volume   848.21259331
_cell_formula_units_Z   53
loop_
 _symmetry_equiv_pos_site_id
 _symmetry_equiv_pos_as_xyz
  1  'x, y, z'
loop_
 _atom_site_type_symbol
 _atom_site_label
 _atom_site_symmetry_multiplicity
 _atom_site_fract_x
 _atom_site_fract_y
 _atom_site_fract_z
 _atom_site_occupancy
  Mo  Mo0  1  1.55114128  1.57886774  1.64031822  1
  Mo  Mo1  1  0.01385613  -0.01934465  3.14288581  1
  Mo  Mo2  1  1.54793347  1.55694461  4.76863050  1
  Mo  Mo3  1  -0.03149989  0.01558971  6.28346515  1
  Mo  Mo4  1  1.57784835  1.60277048  7.90069814  1
  Mo  Mo5  1  0.01576438  3.13420502  -0.04820449  1
  Mo  Mo6  1  1.54707189  4.72085448  1.58536341  1
  Mo  Mo7  1  -0.01817416  3.09667409  3.19232074  1
  Mo  Mo8  1  1.52515031  4.72477043  4.69124982  1
  Mo  Mo9  1  -0.00105706  3.11413696  6.27567020  1
  Mo  Mo10  1  1.53416679  4.72074805  7.86082043  1
  Mo  Mo11  1  0.04284704  6.37366203  0.04893862  1
  Mo  Mo12  1  1.58523814  7.89755798  1.62314112  1
  Mo  Mo13  1  0.03786004  6.29520697  3.13235567  1
  Mo  Mo14  1  1.60627145  7.89512730  4.74379889  1
  Mo  Mo15  1  0.05216203  6.30462324  6.35053749  1
  Mo  Mo16  1  1.52502422  7.92054341  7.88687054  1
  Mo  Mo17  1  3.17500710  0.03240330  -0.00677787  1
  Mo  Mo18  1  4.69051385  1.55177188  1.53260457  1
  Mo  Mo19  1  3.16807428  -0.07362673  3.14746360  1
  Mo  Mo20  1  4.66520921  1.61281982  4.71992651  1
  Mo  Mo21  1  3.13886290  -0.04938276  6.32019021  1
  Mo  Mo22  1  4.75609118  1.54650375  7.94457844  1
  Mo  Mo23  1  3.11246719  3.10465379  -0.01191502  1
  Mo  Mo24  1  4.70831158  4.72035941  1.59433346  1
  Mo  Mo25  1  3.18308931  3.20004702  3.13950023  1
  Mo  Mo26  1  4.75234667  4.75269122  4.68744517  1
  Mo  Mo27  1  3.16475079  3.16294730  6.33672637  1
  Mo  Mo28  1  4.70437549  4.74499869  7.89271089  1
  Mo  Mo29  1  3.16049609  6.30305295  0.01833466  1
  Mo  Mo30  1  4.72493830  7.93044887  1.56639589  1
  Mo  Mo31  1  3.11894831  6.25028073  3.14574377  1
  Mo  Mo32  1  4.72738969  7.86272750  4.62106214  1
  Mo  Mo33  1  3.20103665  6.32035220  6.31158727  1
  Mo  Mo34  1  4.69063629  7.88914812  7.83603552  1
  Mo  Mo35  1  6.31323343  -0.00242403  0.09423014  1
  Mo  Mo36  1  7.88134461  1.57723190  1.52680553  1
  Mo  Mo37  1  6.37893192  0.09010775  3.19117193  1
  Mo  Mo38  1  7.88542600  1.56444047  4.69551109  1
  Mo  Mo39  1  6.33395316  0.02929747  6.26892185  1
  Mo  Mo40  1  7.93545120  1.52383262  7.89894716  1
  Mo  Mo41  1  6.28818678  3.17027541  0.05181632  1
  Mo  Mo42  1  7.97194424  4.79819227  1.60705762  1
  Mo  Mo43  1  6.29144393  3.20955543  3.19026400  1
  Mo  Mo44  1  7.81605063  4.69009446  4.74039846  1
  Mo  Mo45  1  6.23027173  3.16551245  6.31125517  1
  Mo  Mo46  1  7.91283862  4.72686553  7.85349499  1
  Mo  Mo47  1  6.35738466  6.39326348  0.02428778  1
  Mo  Mo48  1  7.91476331  7.86379879  1.60358840  1
  Mo  Mo49  1  6.37013675  6.39032605  3.12966032  1
  Mo  Mo50  1  7.97606044  7.79359182  4.70009240  1
  Mo  Mo51  1  6.27408466  6.30353643  6.30902227  1
  Mo  Mo52  1  7.90020893  7.90322014  7.91451881  1
