# generated using pymatgen
data_Mo
_symmetry_space_group_name_H-M   'P 1'
_cell_length_a   9.46603805
_cell_length_b   9.46603785
_cell_length_c   9.46603779
_cell_angle_alpha   90.00000282
_cell_angle_beta   89.99999931
_cell_angle_gamma   89.99999840
_symmetry_Int_Tables_number   1
_chemical_formula_structural   Mo
_chemical_formula_sum   Mo53
_cell_volume   848.21259331
_cell_formula_units_Z   53
loop_
 _symmetry_equiv_pos_site_id
 _symmetry_equiv_pos_as_xyz
  1  'x, y, z'
loop_
 _atom_site_type_symbol
 _atom_site_label
 _atom_site_symmetry_multiplicity
 _atom_site_fract_x
 _atom_site_fract_y
 _atom_site_fract_z
 _atom_site_occupancy
  Mo  Mo0  1  1.56219070  1.58553718  1.72728455  1
  Mo  Mo1  1  -0.01735891  -0.02141563  3.03493914  1
  Mo  Mo2  1  1.68236499  1.58469561  4.67972735  1
  Mo  Mo3  1  0.03567752  0.05445474  6.34726689  1
  Mo  Mo4  1  1.53718951  1.62825064  7.95171467  1
  Mo  Mo5  1  -0.05647152  3.19554190  0.14223487  1
  Mo  Mo6  1  1.45907747  4.71017630  1.65388792  1
  Mo  Mo7  1  0.08188121  3.16609798  3.20613528  1
  Mo  Mo8  1  1.57074592  4.81212588  4.67488206  1
  Mo  Mo9  1  0.10534500  3.23878483  6.19205212  1
  Mo  Mo10  1  1.55450898  4.78570173  7.85320732  1
  Mo  Mo11  1  0.09535036  6.32730944  -0.03468408  1
  Mo  Mo12  1  1.52018344  8.02118286  1.53713350  1
  Mo  Mo13  1  -0.02790774  6.40167235  3.15214744  1
  Mo  Mo14  1  1.39852726  7.96637373  4.71412297  1
  Mo  Mo15  1  0.05357176  6.37645235  6.27569103  1
  Mo  Mo16  1  1.49759055  7.88934420  7.89307576  1
  Mo  Mo17  1  3.15918647  -0.10583223  -0.02481920  1
  Mo  Mo18  1  4.68502636  1.48024330  1.57694458  1
  Mo  Mo19  1  3.12904648  -0.04258598  3.17323223  1
  Mo  Mo20  1  4.60345537  1.46332723  4.69830613  1
  Mo  Mo21  1  3.13833334  -0.03713469  6.37109275  1
  Mo  Mo22  1  4.82889868  1.52658974  7.80921726  1
  Mo  Mo23  1  3.09701675  3.16285567  -0.01694601  1
  Mo  Mo24  1  4.77712599  4.70030091  1.53989296  1
  Mo  Mo25  1  3.23358690  3.09218905  3.15440713  1
  Mo  Mo26  1  4.72124220  4.75232962  4.61166034  1
  Mo  Mo27  1  3.23624966  3.20160274  6.19495498  1
  Mo  Mo28  1  4.69225617  4.67359580  7.92773104  1
  Mo  Mo29  1  3.22716732  6.26089694  0.05980568  1
  Mo  Mo30  1  4.61010721  7.81899841  1.68360046  1
  Mo  Mo31  1  3.07139819  6.26666852  3.17144932  1
  Mo  Mo32  1  4.63237322  7.90851831  4.71705232  1
  Mo  Mo33  1  3.17774206  6.24038043  6.30339949  1
  Mo  Mo34  1  4.71671804  7.89611804  7.87149941  1
  Mo  Mo35  1  6.41638677  -0.03358093  0.02962162  1
  Mo  Mo36  1  7.87167111  1.55495656  1.45026639  1
  Mo  Mo37  1  6.28703626  0.08087685  3.33440263  1
  Mo  Mo38  1  8.00978804  1.63550692  4.65095325  1
  Mo  Mo39  1  6.35429187  0.01434810  6.32857332  1
  Mo  Mo40  1  8.05717054  1.62224329  7.91625034  1
  Mo  Mo41  1  6.31692489  3.19482837  0.07980421  1
  Mo  Mo42  1  7.89422413  4.67182035  1.60015121  1
  Mo  Mo43  1  6.35238678  3.07018115  3.10852069  1
  Mo  Mo44  1  7.97057817  4.82265501  4.72874190  1
  Mo  Mo45  1  6.30278491  3.14031806  6.32629974  1
  Mo  Mo46  1  7.93939246  4.70641284  7.86476570  1
  Mo  Mo47  1  6.28718303  6.19809016  0.05030000  1
  Mo  Mo48  1  7.78295653  7.85035042  1.54039162  1
  Mo  Mo49  1  6.24512893  6.35515079  3.16458658  1
  Mo  Mo50  1  7.88802001  7.85205659  4.73290906  1
  Mo  Mo51  1  6.31721745  6.36886103  6.34990679  1
  Mo  Mo52  1  7.90332550  7.89942992  7.90610555  1
