# generated using pymatgen
data_Mo
_symmetry_space_group_name_H-M   'P 1'
_cell_length_a   9.46603805
_cell_length_b   9.46603785
_cell_length_c   9.46603779
_cell_angle_alpha   90.00000282
_cell_angle_beta   89.99999931
_cell_angle_gamma   89.99999840
_symmetry_Int_Tables_number   1
_chemical_formula_structural   Mo
_chemical_formula_sum   Mo53
_cell_volume   848.21259331
_cell_formula_units_Z   53
loop_
 _symmetry_equiv_pos_site_id
 _symmetry_equiv_pos_as_xyz
  1  'x, y, z'
loop_
 _atom_site_type_symbol
 _atom_site_label
 _atom_site_symmetry_multiplicity
 _atom_site_fract_x
 _atom_site_fract_y
 _atom_site_fract_z
 _atom_site_occupancy
  Mo  Mo0  1  1.51594926  1.47418974  1.47846048  1
  Mo  Mo1  1  0.05036252  -0.11160230  3.19470444  1
  Mo  Mo2  1  1.48032189  1.56984271  4.70177080  1
  Mo  Mo3  1  -0.06961934  -0.06974057  6.27113399  1
  Mo  Mo4  1  1.63369183  1.40653666  7.95987132  1
  Mo  Mo5  1  -0.03105794  3.08765488  -0.04460481  1
  Mo  Mo6  1  1.64624954  4.70392859  1.46153578  1
  Mo  Mo7  1  -0.04697767  3.07190692  3.08139631  1
  Mo  Mo8  1  1.46392241  4.65487021  4.78824652  1
  Mo  Mo9  1  -0.05797498  3.08468072  6.26111388  1
  Mo  Mo10  1  1.57501224  4.67184619  7.91740402  1
  Mo  Mo11  1  -0.02780774  6.32277301  0.03062248  1
  Mo  Mo12  1  1.61952224  7.92372282  1.67537291  1
  Mo  Mo13  1  0.01492430  6.21916779  3.24573669  1
  Mo  Mo14  1  1.72635800  7.88573053  4.75040080  1
  Mo  Mo15  1  0.03225754  6.30410059  6.27683179  1
  Mo  Mo16  1  1.55929783  7.89041408  7.92886047  1
  Mo  Mo17  1  3.09589537  0.02621386  -0.01560455  1
  Mo  Mo18  1  4.73888371  1.66774677  1.66041553  1
  Mo  Mo19  1  3.19447003  0.07958824  3.15549581  1
  Mo  Mo20  1  4.67056795  1.60936498  4.72448511  1
  Mo  Mo21  1  3.19712311  0.01201616  6.19093257  1
  Mo  Mo22  1  4.70768622  1.58945442  7.90206027  1
  Mo  Mo23  1  3.13812104  3.27748997  0.01221221  1
  Mo  Mo24  1  4.81049240  4.80809850  1.55637431  1
  Mo  Mo25  1  3.06943131  3.25596635  3.21628543  1
  Mo  Mo26  1  4.70889571  4.72675891  4.86527501  1
  Mo  Mo27  1  3.08664398  3.16625663  6.28973412  1
  Mo  Mo28  1  4.73354409  4.79912483  7.98517904  1
  Mo  Mo29  1  3.08325563  6.38917347  0.00668282  1
  Mo  Mo30  1  4.84904110  7.94513162  1.59119919  1
  Mo  Mo31  1  3.15750598  6.26396024  3.21478339  1
  Mo  Mo32  1  4.87324536  7.91361238  4.64671547  1
  Mo  Mo33  1  3.11973094  6.30605881  6.26344057  1
  Mo  Mo34  1  4.68694104  7.94991487  7.87961304  1
  Mo  Mo35  1  6.31599729  -0.00739239  0.03166105  1
  Mo  Mo36  1  7.94835685  1.59505491  1.61948294  1
  Mo  Mo37  1  6.32500339  0.01252909  3.13324721  1
  Mo  Mo38  1  7.78434683  1.54257982  4.68685640  1
  Mo  Mo39  1  6.29715467  -0.01658759  6.27935435  1
  Mo  Mo40  1  7.73460698  1.52839087  7.90140902  1
  Mo  Mo41  1  6.36822849  3.15231816  -0.00805267  1
  Mo  Mo42  1  7.95790578  4.74876156  1.57250319  1
  Mo  Mo43  1  6.29735306  3.12337029  3.04509041  1
  Mo  Mo44  1  7.90269223  4.74011549  4.77976089  1
  Mo  Mo45  1  6.33105610  3.13226087  6.34720400  1
  Mo  Mo46  1  7.89020467  4.80895990  7.96441516  1
  Mo  Mo47  1  6.24749153  6.31953889  -0.09183823  1
  Mo  Mo48  1  8.05918705  7.96947612  1.55859405  1
  Mo  Mo49  1  6.30904358  6.30978319  3.06662178  1
  Mo  Mo50  1  8.01464228  7.79792545  4.75688526  1
  Mo  Mo51  1  6.33241563  6.35868778  6.21930313  1
  Mo  Mo52  1  7.86427093  7.99412740  7.99921509  1
