# generated using pymatgen
data_Mo
_symmetry_space_group_name_H-M   'P 1'
_cell_length_a   9.46603805
_cell_length_b   9.46603785
_cell_length_c   9.46603779
_cell_angle_alpha   90.00000282
_cell_angle_beta   89.99999931
_cell_angle_gamma   89.99999840
_symmetry_Int_Tables_number   1
_chemical_formula_structural   Mo
_chemical_formula_sum   Mo53
_cell_volume   848.21259331
_cell_formula_units_Z   53
loop_
 _symmetry_equiv_pos_site_id
 _symmetry_equiv_pos_as_xyz
  1  'x, y, z'
loop_
 _atom_site_type_symbol
 _atom_site_label
 _atom_site_symmetry_multiplicity
 _atom_site_fract_x
 _atom_site_fract_y
 _atom_site_fract_z
 _atom_site_occupancy
  Mo  Mo0  1  1.59105193  1.55889204  1.49461062  1
  Mo  Mo1  1  -0.02895713  0.04216517  3.06336746  1
  Mo  Mo2  1  1.52674307  1.50933211  4.66529059  1
  Mo  Mo3  1  0.08952640  0.00925630  6.33708811  1
  Mo  Mo4  1  1.40435710  1.48117075  8.03352262  1
  Mo  Mo5  1  0.02058660  3.14821986  0.08199679  1
  Mo  Mo6  1  1.55321899  4.74179895  1.73408417  1
  Mo  Mo7  1  0.01256881  3.16744448  3.21132947  1
  Mo  Mo8  1  1.59386265  4.75462286  4.71985133  1
  Mo  Mo9  1  0.01149839  3.11770174  6.21569496  1
  Mo  Mo10  1  1.51008577  4.62280157  7.94501747  1
  Mo  Mo11  1  0.07640897  6.26859370  -0.07824741  1
  Mo  Mo12  1  1.68199938  7.97361832  1.53470025  1
  Mo  Mo13  1  -0.00989915  6.33292446  3.12473241  1
  Mo  Mo14  1  1.59630104  7.92568796  4.70258823  1
  Mo  Mo15  1  0.00151696  6.29237602  6.34385171  1
  Mo  Mo16  1  1.60532976  7.80394160  7.85638828  1
  Mo  Mo17  1  3.20950609  -0.02145437  -0.00522900  1
  Mo  Mo18  1  4.64920239  1.60095764  1.47826476  1
  Mo  Mo19  1  3.10530965  0.05582296  3.13493466  1
  Mo  Mo20  1  4.58884549  1.58989019  4.71089969  1
  Mo  Mo21  1  3.09942169  0.00584348  6.35480745  1
  Mo  Mo22  1  4.68866343  1.57019404  7.95225033  1
  Mo  Mo23  1  3.14253881  3.16598989  -0.01677930  1
  Mo  Mo24  1  4.79901908  4.73885943  1.61972118  1
  Mo  Mo25  1  3.11591750  3.18972840  3.10239798  1
  Mo  Mo26  1  4.74354188  4.74687313  4.66150302  1
  Mo  Mo27  1  3.09219617  3.13842871  6.27341506  1
  Mo  Mo28  1  4.66933544  4.70125377  7.87306436  1
  Mo  Mo29  1  3.12317020  6.35687769  0.07925747  1
  Mo  Mo30  1  4.70443395  7.95129445  1.64562345  1
  Mo  Mo31  1  3.09620744  6.33023601  3.20933875  1
  Mo  Mo32  1  4.76030014  7.94605060  4.72778661  1
  Mo  Mo33  1  3.15179063  6.25558140  6.32548466  1
  Mo  Mo34  1  4.75814026  7.93474123  7.86535281  1
  Mo  Mo35  1  6.35160543  0.04981960  0.02184775  1
  Mo  Mo36  1  7.90753614  1.44073396  1.51271031  1
  Mo  Mo37  1  6.36647990  -0.00136852  3.25677567  1
  Mo  Mo38  1  7.89958867  1.61013594  4.72498187  1
  Mo  Mo39  1  6.36380080  0.00265098  6.22076528  1
  Mo  Mo40  1  7.93845672  1.57041142  7.92858328  1
  Mo  Mo41  1  6.33541212  3.20863267  0.02680794  1
  Mo  Mo42  1  7.97985648  4.72318730  1.59392356  1
  Mo  Mo43  1  6.31806527  3.15407803  3.27178559  1
  Mo  Mo44  1  7.87393201  4.76830684  4.73945942  1
  Mo  Mo45  1  6.23475533  3.18260633  6.24752922  1
  Mo  Mo46  1  7.86912892  4.70721948  7.90165195  1
  Mo  Mo47  1  6.25541412  6.30826326  -0.02346230  1
  Mo  Mo48  1  7.97347842  7.84468566  1.40879298  1
  Mo  Mo49  1  6.36913975  6.27393149  3.16596199  1
  Mo  Mo50  1  7.99265392  7.96339125  4.70190579  1
  Mo  Mo51  1  6.31123910  6.34538462  6.27801557  1
  Mo  Mo52  1  7.91158142  7.82606650  8.02985332  1
