# generated using pymatgen
data_Mo
_symmetry_space_group_name_H-M   'P 1'
_cell_length_a   9.46602123
_cell_length_b   9.46602137
_cell_length_c   9.46602266
_cell_angle_alpha   90.00002705
_cell_angle_beta   90.00001288
_cell_angle_gamma   90.00006527
_symmetry_Int_Tables_number   1
_chemical_formula_structural   Mo
_chemical_formula_sum   Mo53
_cell_volume   848.20825455
_cell_formula_units_Z   53
loop_
 _symmetry_equiv_pos_site_id
 _symmetry_equiv_pos_as_xyz
  1  'x, y, z'
loop_
 _atom_site_type_symbol
 _atom_site_label
 _atom_site_symmetry_multiplicity
 _atom_site_fract_x
 _atom_site_fract_y
 _atom_site_fract_z
 _atom_site_occupancy
  Mo  Mo0  1  1.57228869  1.57807358  1.51371433  1
  Mo  Mo1  1  -0.05234506  0.06941890  3.05576236  1
  Mo  Mo2  1  1.53316689  1.58865311  4.65178424  1
  Mo  Mo3  1  0.04040199  -0.02631247  6.35055606  1
  Mo  Mo4  1  1.58986164  1.64010306  7.83022083  1
  Mo  Mo5  1  -0.01218913  3.09430334  -0.07669348  1
  Mo  Mo6  1  1.58903992  4.72052564  1.51645526  1
  Mo  Mo7  1  -0.05663759  3.27042795  3.09056163  1
  Mo  Mo8  1  1.57677727  4.74618695  4.74723831  1
  Mo  Mo9  1  -0.02954797  3.12968628  6.19393698  1
  Mo  Mo10  1  1.49819133  4.67765925  7.93168424  1
  Mo  Mo11  1  0.02155898  6.35820801  -0.02924262  1
  Mo  Mo12  1  1.58446833  7.93276121  1.52844735  1
  Mo  Mo13  1  0.01320556  6.37118202  3.21028780  1
  Mo  Mo14  1  1.56042696  7.95215941  4.68452965  1
  Mo  Mo15  1  0.03034979  6.26703198  6.33147614  1
  Mo  Mo16  1  1.61773553  7.86988867  7.84756031  1
  Mo  Mo17  1  3.10868987  0.01480445  -0.02546392  1
  Mo  Mo18  1  4.73998658  1.49255796  1.63682639  1
  Mo  Mo19  1  3.10116911  0.03363793  3.13026426  1
  Mo  Mo20  1  4.72843054  1.53362760  4.75105134  1
  Mo  Mo21  1  3.17873094  -0.00677263  6.23358841  1
  Mo  Mo22  1  4.76456750  1.56129478  7.96800484  1
  Mo  Mo23  1  3.22733284  3.16115239  0.05908563  1
  Mo  Mo24  1  4.75815110  4.73649544  1.57243120  1
  Mo  Mo25  1  3.16411465  3.17598402  3.20556851  1
  Mo  Mo26  1  4.72002277  4.72151916  4.74560805  1
  Mo  Mo27  1  3.19378046  3.14906145  6.28568677  1
  Mo  Mo28  1  4.71804452  4.72057792  7.98001393  1
  Mo  Mo29  1  3.16035891  6.29069134  0.08366718  1
  Mo  Mo30  1  4.73799171  7.93058126  1.53278318  1
  Mo  Mo31  1  3.14083830  6.32008454  3.20536156  1
  Mo  Mo32  1  4.72671473  7.90440540  4.73839243  1
  Mo  Mo33  1  3.14624003  6.23912987  6.33640429  1
  Mo  Mo34  1  4.73474877  7.93861215  7.92003546  1
  Mo  Mo35  1  6.36417144  -0.00808341  0.00946792  1
  Mo  Mo36  1  7.85848876  1.60824330  1.61042694  1
  Mo  Mo37  1  6.25214587  -0.01913603  3.18386191  1
  Mo  Mo38  1  7.89400114  1.51673860  4.76753570  1
  Mo  Mo39  1  6.32009293  -0.05981395  6.32202932  1
  Mo  Mo40  1  7.90894693  1.49622780  7.92002672  1
  Mo  Mo41  1  6.33324705  3.17644858  -0.03125630  1
  Mo  Mo42  1  7.92620089  4.75274283  1.51562596  1
  Mo  Mo43  1  6.29498169  3.21605448  3.17537984  1
  Mo  Mo44  1  7.90177428  4.75542916  4.74218361  1
  Mo  Mo45  1  6.32059437  3.18057468  6.27298853  1
  Mo  Mo46  1  7.85977805  4.70456516  7.85875308  1
  Mo  Mo47  1  6.28168843  6.29703029  -0.02606671  1
  Mo  Mo48  1  7.89142538  7.82799989  1.63191779  1
  Mo  Mo49  1  6.29163511  6.32193591  3.17779637  1
  Mo  Mo50  1  7.94543140  7.89256469  4.85754447  1
  Mo  Mo51  1  6.27968713  6.26677231  6.32086204  1
  Mo  Mo52  1  7.93437531  7.90161312  7.93876991  1
