# generated using pymatgen
data_Mo
_symmetry_space_group_name_H-M   'P 1'
_cell_length_a   9.46603805
_cell_length_b   9.46603785
_cell_length_c   9.46603779
_cell_angle_alpha   90.00000282
_cell_angle_beta   89.99999931
_cell_angle_gamma   89.99999840
_symmetry_Int_Tables_number   1
_chemical_formula_structural   Mo
_chemical_formula_sum   Mo53
_cell_volume   848.21259331
_cell_formula_units_Z   53
loop_
 _symmetry_equiv_pos_site_id
 _symmetry_equiv_pos_as_xyz
  1  'x, y, z'
loop_
 _atom_site_type_symbol
 _atom_site_label
 _atom_site_symmetry_multiplicity
 _atom_site_fract_x
 _atom_site_fract_y
 _atom_site_fract_z
 _atom_site_occupancy
  Mo  Mo0  1  1.61933908  1.55377412  1.59593774  1
  Mo  Mo1  1  0.01184154  0.03377526  3.25340588  1
  Mo  Mo2  1  1.61398183  1.50807518  4.68723340  1
  Mo  Mo3  1  0.02852942  0.04440124  6.26053573  1
  Mo  Mo4  1  1.72150903  1.57368129  7.94129356  1
  Mo  Mo5  1  0.01901886  3.14420759  -0.08182855  1
  Mo  Mo6  1  1.51144718  4.73698899  1.58521107  1
  Mo  Mo7  1  0.03165570  3.10762153  3.15810998  1
  Mo  Mo8  1  1.59564938  4.72324528  4.69848475  1
  Mo  Mo9  1  0.03608765  3.06368925  6.18688087  1
  Mo  Mo10  1  1.56077793  4.74465502  7.93151551  1
  Mo  Mo11  1  -0.00313616  6.40126527  -0.05485515  1
  Mo  Mo12  1  1.55482006  7.97758366  1.67786558  1
  Mo  Mo13  1  -0.01617113  6.23057721  3.15614680  1
  Mo  Mo14  1  1.59766819  7.87103874  4.66914220  1
  Mo  Mo15  1  0.07199859  6.34177723  6.29948578  1
  Mo  Mo16  1  1.46636571  7.98948610  7.88547332  1
  Mo  Mo17  1  3.12437623  -0.02063785  -0.00366814  1
  Mo  Mo18  1  4.65087095  1.54962487  1.54682182  1
  Mo  Mo19  1  3.14926841  0.01029294  3.16787245  1
  Mo  Mo20  1  4.67851800  1.62256305  4.70814515  1
  Mo  Mo21  1  3.12252269  0.00573517  6.24378627  1
  Mo  Mo22  1  4.75403898  1.51940969  8.02016778  1
  Mo  Mo23  1  3.05158283  3.17783634  -0.03125428  1
  Mo  Mo24  1  4.76582605  4.67938723  1.61566371  1
  Mo  Mo25  1  3.13022683  3.22632306  3.10823350  1
  Mo  Mo26  1  4.84887608  4.70042817  4.77677433  1
  Mo  Mo27  1  3.20726948  3.24207988  6.33038618  1
  Mo  Mo28  1  4.78434030  4.79585744  7.92351887  1
  Mo  Mo29  1  3.00455021  6.40278274  0.01246782  1
  Mo  Mo30  1  4.64400567  7.89887325  1.64435278  1
  Mo  Mo31  1  3.02595531  6.16437044  3.15781804  1
  Mo  Mo32  1  4.70192219  7.82294781  4.62484882  1
  Mo  Mo33  1  3.22885819  6.29827995  6.22739696  1
  Mo  Mo34  1  4.62453587  7.97527160  7.89050426  1
  Mo  Mo35  1  6.26692336  0.00403348  0.10200050  1
  Mo  Mo36  1  7.99468467  1.50704944  1.60921126  1
  Mo  Mo37  1  6.40196506  -0.01380642  3.19510837  1
  Mo  Mo38  1  7.91372040  1.62320912  4.68369100  1
  Mo  Mo39  1  6.27804752  -0.06359809  6.12859155  1
  Mo  Mo40  1  7.88064656  1.59912916  7.87583951  1
  Mo  Mo41  1  6.27403753  3.04853132  0.00146673  1
  Mo  Mo42  1  7.99343366  4.80535975  1.60022491  1
  Mo  Mo43  1  6.29638383  3.14181777  3.21112275  1
  Mo  Mo44  1  7.89456766  4.73481022  4.78827111  1
  Mo  Mo45  1  6.38533313  3.12450076  6.22431742  1
  Mo  Mo46  1  8.01878986  4.83192287  7.97807462  1
  Mo  Mo47  1  6.22345922  6.29072005  -0.07904835  1
  Mo  Mo48  1  7.92041817  7.91254277  1.64884132  1
  Mo  Mo49  1  6.27863584  6.18481559  3.09673276  1
  Mo  Mo50  1  7.92666288  7.84146077  4.75473759  1
  Mo  Mo51  1  6.33854958  6.30294854  6.24989961  1
  Mo  Mo52  1  7.78067817  7.99313755  8.10289279  1
