# generated using pymatgen
data_Mo
_symmetry_space_group_name_H-M   'P 1'
_cell_length_a   9.46603805
_cell_length_b   9.46603785
_cell_length_c   9.46603779
_cell_angle_alpha   90.00000282
_cell_angle_beta   89.99999931
_cell_angle_gamma   89.99999840
_symmetry_Int_Tables_number   1
_chemical_formula_structural   Mo
_chemical_formula_sum   Mo53
_cell_volume   848.21259331
_cell_formula_units_Z   53
loop_
 _symmetry_equiv_pos_site_id
 _symmetry_equiv_pos_as_xyz
  1  'x, y, z'
loop_
 _atom_site_type_symbol
 _atom_site_label
 _atom_site_symmetry_multiplicity
 _atom_site_fract_x
 _atom_site_fract_y
 _atom_site_fract_z
 _atom_site_occupancy
  Mo  Mo0  1  1.45742024  1.56497527  1.36972263  1
  Mo  Mo1  1  0.05638507  -0.09845093  3.08112696  1
  Mo  Mo2  1  1.59038652  1.59195391  4.71465298  1
  Mo  Mo3  1  -0.03848478  -0.05069086  6.31499966  1
  Mo  Mo4  1  1.41228635  1.49676278  7.92785387  1
  Mo  Mo5  1  0.01096278  3.07383693  -0.04206964  1
  Mo  Mo6  1  1.52476449  4.74218791  1.55742409  1
  Mo  Mo7  1  -0.14823176  3.04669917  3.12591129  1
  Mo  Mo8  1  1.57611778  4.62950144  4.85098105  1
  Mo  Mo9  1  0.02886219  3.15821855  6.30946961  1
  Mo  Mo10  1  1.57485688  4.76345377  7.92434262  1
  Mo  Mo11  1  0.03757916  6.38617484  0.09462716  1
  Mo  Mo12  1  1.58831906  7.89066427  1.56392200  1
  Mo  Mo13  1  0.00275050  6.27831166  3.27009872  1
  Mo  Mo14  1  1.58969925  7.79731575  4.82958524  1
  Mo  Mo15  1  -0.07742673  6.28045524  6.37325304  1
  Mo  Mo16  1  1.61575145  8.00193013  7.86980022  1
  Mo  Mo17  1  3.11269678  0.06287016  0.04291731  1
  Mo  Mo18  1  4.81411205  1.64333461  1.64485901  1
  Mo  Mo19  1  3.17255831  0.06000345  3.21741692  1
  Mo  Mo20  1  4.71788903  1.58925595  4.75653705  1
  Mo  Mo21  1  3.25299045  -0.00300473  6.31264068  1
  Mo  Mo22  1  4.66271133  1.60228275  7.94438691  1
  Mo  Mo23  1  3.27805081  3.23795353  -0.02369978  1
  Mo  Mo24  1  4.63407283  4.81497349  1.46325216  1
  Mo  Mo25  1  3.09910286  3.14662866  3.09369628  1
  Mo  Mo26  1  4.68734479  4.76399146  4.64727221  1
  Mo  Mo27  1  3.14826707  3.09344820  6.31394405  1
  Mo  Mo28  1  4.71051344  4.72983221  7.90761709  1
  Mo  Mo29  1  3.16994152  6.33806546  -0.09309065  1
  Mo  Mo30  1  4.75230021  7.96014616  1.51478537  1
  Mo  Mo31  1  3.22910404  6.42134324  3.12967225  1
  Mo  Mo32  1  4.76221067  7.89700004  4.68363818  1
  Mo  Mo33  1  3.13592540  6.29880304  6.30163870  1
  Mo  Mo34  1  4.74927960  7.86852640  7.87222037  1
  Mo  Mo35  1  6.27386927  0.03048523  -0.00162139  1
  Mo  Mo36  1  7.95295060  1.47063889  1.49967294  1
  Mo  Mo37  1  6.27234995  -0.04051617  3.15994614  1
  Mo  Mo38  1  7.89753020  1.49304262  4.78060276  1
  Mo  Mo39  1  6.31154466  0.02006898  6.26417354  1
  Mo  Mo40  1  7.84486465  1.60408426  7.91611928  1
  Mo  Mo41  1  6.42932280  3.23773709  -0.01334424  1
  Mo  Mo42  1  7.95105048  4.63646942  1.41986365  1
  Mo  Mo43  1  6.33201345  3.11198788  3.13663412  1
  Mo  Mo44  1  7.97925622  4.70650238  4.78550442  1
  Mo  Mo45  1  6.23626231  3.14899706  6.37604898  1
  Mo  Mo46  1  7.84855750  4.75383645  7.97715176  1
  Mo  Mo47  1  6.25608045  6.40703013  0.04287399  1
  Mo  Mo48  1  7.89769114  7.81582559  1.53435443  1
  Mo  Mo49  1  6.44643136  6.26708323  3.15937167  1
  Mo  Mo50  1  7.98140504  7.92962253  4.75352012  1
  Mo  Mo51  1  6.27635961  6.30883794  6.32003805  1
  Mo  Mo52  1  7.90725491  8.00536593  8.00953436  1
