# generated using pymatgen
data_Mo
_symmetry_space_group_name_H-M   'P 1'
_cell_length_a   9.46603805
_cell_length_b   9.46603785
_cell_length_c   9.46603779
_cell_angle_alpha   90.00000282
_cell_angle_beta   89.99999931
_cell_angle_gamma   89.99999840
_symmetry_Int_Tables_number   1
_chemical_formula_structural   Mo
_chemical_formula_sum   Mo53
_cell_volume   848.21259331
_cell_formula_units_Z   53
loop_
 _symmetry_equiv_pos_site_id
 _symmetry_equiv_pos_as_xyz
  1  'x, y, z'
loop_
 _atom_site_type_symbol
 _atom_site_label
 _atom_site_symmetry_multiplicity
 _atom_site_fract_x
 _atom_site_fract_y
 _atom_site_fract_z
 _atom_site_occupancy
  Mo  Mo0  1  1.67186829  1.50427324  1.64122768  1
  Mo  Mo1  1  -0.01530802  0.05850232  3.14209559  1
  Mo  Mo2  1  1.60932916  1.53275333  4.74243277  1
  Mo  Mo3  1  -0.02890996  -0.01955016  6.33946893  1
  Mo  Mo4  1  1.65106127  1.58838902  7.93985829  1
  Mo  Mo5  1  -0.05515184  3.14027387  0.09154246  1
  Mo  Mo6  1  1.65772338  4.76864045  1.63942763  1
  Mo  Mo7  1  -0.04659031  3.21054037  3.19743950  1
  Mo  Mo8  1  1.63997004  4.77545050  4.74394707  1
  Mo  Mo9  1  -0.00686058  3.19038271  6.19570370  1
  Mo  Mo10  1  1.53016472  4.69265170  7.89386972  1
  Mo  Mo11  1  0.06242000  6.24515454  0.03210322  1
  Mo  Mo12  1  1.56566812  7.97194246  1.53811418  1
  Mo  Mo13  1  -0.03829335  6.39749211  3.03574824  1
  Mo  Mo14  1  1.51031472  7.91031461  4.62063044  1
  Mo  Mo15  1  0.07924715  6.29736181  6.06880873  1
  Mo  Mo16  1  1.52152663  7.89698558  7.93089901  1
  Mo  Mo17  1  3.07791242  -0.07793020  -0.02678405  1
  Mo  Mo18  1  4.74656027  1.50381267  1.52282594  1
  Mo  Mo19  1  3.14172896  -0.03256454  3.18344956  1
  Mo  Mo20  1  4.66125255  1.53437891  4.72052252  1
  Mo  Mo21  1  3.12445625  0.02818052  6.32392934  1
  Mo  Mo22  1  4.76271021  1.40926613  7.87588192  1
  Mo  Mo23  1  3.01896175  3.17763881  -0.00155440  1
  Mo  Mo24  1  4.73227074  4.68242069  1.59191468  1
  Mo  Mo25  1  3.19340989  3.18992812  3.17920472  1
  Mo  Mo26  1  4.74713300  4.79100647  4.82937828  1
  Mo  Mo27  1  3.05803177  3.21840927  6.35413405  1
  Mo  Mo28  1  4.70806123  4.67622839  7.98132139  1
  Mo  Mo29  1  3.14704665  6.16271807  -0.01372940  1
  Mo  Mo30  1  4.79596879  7.95942020  1.65330448  1
  Mo  Mo31  1  3.13642279  6.26731614  3.19574556  1
  Mo  Mo32  1  4.55700662  7.92951137  4.69248295  1
  Mo  Mo33  1  3.14164401  6.33049603  6.29135870  1
  Mo  Mo34  1  4.72036044  7.82397250  7.95215696  1
  Mo  Mo35  1  6.39129377  -0.03137893  0.01087344  1
  Mo  Mo36  1  7.87587078  1.64986732  1.61246112  1
  Mo  Mo37  1  6.31856032  0.07165109  3.14667818  1
  Mo  Mo38  1  7.92653376  1.59121096  4.72765566  1
  Mo  Mo39  1  6.41332739  0.03256486  6.17193972  1
  Mo  Mo40  1  7.96279210  1.60334976  7.87754916  1
  Mo  Mo41  1  6.25304039  3.13215796  0.02247022  1
  Mo  Mo42  1  7.97877687  4.82266523  1.56389526  1
  Mo  Mo43  1  6.25859041  3.18973041  3.19095124  1
  Mo  Mo44  1  7.95266884  4.85017275  4.72594663  1
  Mo  Mo45  1  6.27514615  3.09495852  6.29000357  1
  Mo  Mo46  1  7.88173284  4.60483917  7.90980090  1
  Mo  Mo47  1  6.28952535  6.21975369  -0.02467974  1
  Mo  Mo48  1  7.94244823  7.92529432  1.56178202  1
  Mo  Mo49  1  6.29891102  6.39916404  3.17052305  1
  Mo  Mo50  1  7.94717832  7.96761368  4.67147573  1
  Mo  Mo51  1  6.32918646  6.31412354  6.29544659  1
  Mo  Mo52  1  7.91116348  7.81234696  7.96221709  1
