# generated using pymatgen
data_Mo
_symmetry_space_group_name_H-M   'P 1'
_cell_length_a   9.46603805
_cell_length_b   9.46603785
_cell_length_c   9.46603779
_cell_angle_alpha   90.00000282
_cell_angle_beta   89.99999931
_cell_angle_gamma   89.99999840
_symmetry_Int_Tables_number   1
_chemical_formula_structural   Mo
_chemical_formula_sum   Mo53
_cell_volume   848.21259331
_cell_formula_units_Z   53
loop_
 _symmetry_equiv_pos_site_id
 _symmetry_equiv_pos_as_xyz
  1  'x, y, z'
loop_
 _atom_site_type_symbol
 _atom_site_label
 _atom_site_symmetry_multiplicity
 _atom_site_fract_x
 _atom_site_fract_y
 _atom_site_fract_z
 _atom_site_occupancy
  Mo  Mo0  1  1.62845301  1.65992552  1.43768216  1
  Mo  Mo1  1  -0.01790089  0.05261469  3.09217246  1
  Mo  Mo2  1  1.70338723  1.59819451  4.75182111  1
  Mo  Mo3  1  0.02459594  0.02231925  6.35240670  1
  Mo  Mo4  1  1.47203956  1.44072193  7.89502261  1
  Mo  Mo5  1  0.04485510  3.05981588  -0.07201170  1
  Mo  Mo6  1  1.48389888  4.76652398  1.54646777  1
  Mo  Mo7  1  -0.08474792  3.20075937  3.13005815  1
  Mo  Mo8  1  1.66262174  4.67095957  4.72863451  1
  Mo  Mo9  1  0.13843562  3.17295694  6.33377263  1
  Mo  Mo10  1  1.53700324  4.81310301  7.87330899  1
  Mo  Mo11  1  -0.07221227  6.44967916  -0.12780628  1
  Mo  Mo12  1  1.51384305  7.93086595  1.57672587  1
  Mo  Mo13  1  -0.05096265  6.32086671  3.07531261  1
  Mo  Mo14  1  1.50356813  7.87554989  4.84719610  1
  Mo  Mo15  1  -0.10330190  6.33266038  6.35596586  1
  Mo  Mo16  1  1.52833658  7.91327596  7.84675269  1
  Mo  Mo17  1  3.12914866  0.01091887  0.02241195  1
  Mo  Mo18  1  4.83631673  1.54883915  1.52593246  1
  Mo  Mo19  1  3.08495075  0.02659833  3.11419017  1
  Mo  Mo20  1  4.80390952  1.64186606  4.74556080  1
  Mo  Mo21  1  3.20110934  -0.00116063  6.27124248  1
  Mo  Mo22  1  4.75290974  1.50046398  7.90860332  1
  Mo  Mo23  1  3.26527237  3.10909866  0.05627309  1
  Mo  Mo24  1  4.69856711  4.71795032  1.59655818  1
  Mo  Mo25  1  3.14239914  3.14296219  3.12527981  1
  Mo  Mo26  1  4.83246924  4.73343068  4.77659395  1
  Mo  Mo27  1  3.32112295  3.15985684  6.32738863  1
  Mo  Mo28  1  4.78044954  4.65602223  7.95963300  1
  Mo  Mo29  1  3.02616989  6.42154793  0.02994151  1
  Mo  Mo30  1  4.64572285  7.81024034  1.53060966  1
  Mo  Mo31  1  3.16626491  6.32852665  3.12900054  1
  Mo  Mo32  1  4.78682310  7.85328760  4.76271998  1
  Mo  Mo33  1  3.14033860  6.36891889  6.35759384  1
  Mo  Mo34  1  4.71389756  7.85747726  7.98145534  1
  Mo  Mo35  1  6.33451153  -0.05356581  -0.08722741  1
  Mo  Mo36  1  7.93113389  1.60775286  1.63866449  1
  Mo  Mo37  1  6.18728004  -0.04492692  3.13251606  1
  Mo  Mo38  1  7.95129901  1.64048306  4.86461408  1
  Mo  Mo39  1  6.24002993  -0.06551878  6.23758436  1
  Mo  Mo40  1  7.94305316  1.46275123  7.94195592  1
  Mo  Mo41  1  6.36782314  3.02696282  -0.01011874  1
  Mo  Mo42  1  7.87688398  4.69591093  1.46483217  1
  Mo  Mo43  1  6.30417519  3.22803578  3.20236223  1
  Mo  Mo44  1  7.91072177  4.73063387  4.73924884  1
  Mo  Mo45  1  6.32440571  3.16990002  6.36180336  1
  Mo  Mo46  1  7.95802208  4.73174543  7.93755307  1
  Mo  Mo47  1  6.23029236  6.27347396  0.04664594  1
  Mo  Mo48  1  7.86231403  7.99665223  1.52730883  1
  Mo  Mo49  1  6.31593301  6.20983407  3.11427261  1
  Mo  Mo50  1  7.82413768  7.97644180  4.76640587  1
  Mo  Mo51  1  6.34096208  6.33079535  6.30587984  1
  Mo  Mo52  1  7.84313122  7.90085347  7.93707777  1
