# generated using pymatgen
data_Mo
_symmetry_space_group_name_H-M   'P 1'
_cell_length_a   9.46603805
_cell_length_b   9.46603785
_cell_length_c   9.46603779
_cell_angle_alpha   90.00000282
_cell_angle_beta   89.99999931
_cell_angle_gamma   89.99999840
_symmetry_Int_Tables_number   1
_chemical_formula_structural   Mo
_chemical_formula_sum   Mo53
_cell_volume   848.21259331
_cell_formula_units_Z   53
loop_
 _symmetry_equiv_pos_site_id
 _symmetry_equiv_pos_as_xyz
  1  'x, y, z'
loop_
 _atom_site_type_symbol
 _atom_site_label
 _atom_site_symmetry_multiplicity
 _atom_site_fract_x
 _atom_site_fract_y
 _atom_site_fract_z
 _atom_site_occupancy
  Mo  Mo0  1  1.56024665  1.69811694  1.48610546  1
  Mo  Mo1  1  -0.03885552  0.01319586  3.20109293  1
  Mo  Mo2  1  1.51592251  1.54361995  4.74898073  1
  Mo  Mo3  1  -0.00224083  0.01657437  6.24973877  1
  Mo  Mo4  1  1.53790613  1.47248774  7.86267695  1
  Mo  Mo5  1  0.09251133  3.15774816  -0.10754512  1
  Mo  Mo6  1  1.42427115  4.72508117  1.37181567  1
  Mo  Mo7  1  0.10929878  3.14719841  3.13103194  1
  Mo  Mo8  1  1.52665543  4.73607844  4.68064454  1
  Mo  Mo9  1  0.07351459  3.14368578  6.42231385  1
  Mo  Mo10  1  1.58732854  4.70326516  7.90163432  1
  Mo  Mo11  1  -0.11730245  6.45414216  -0.01736590  1
  Mo  Mo12  1  1.47042327  7.87623917  1.61053741  1
  Mo  Mo13  1  -0.00952310  6.24467425  3.18710338  1
  Mo  Mo14  1  1.54468728  7.89702193  4.81760025  1
  Mo  Mo15  1  -0.08595590  6.36127993  6.39937007  1
  Mo  Mo16  1  1.53038630  7.94382728  7.85949047  1
  Mo  Mo17  1  3.21657163  0.08372083  -0.03143054  1
  Mo  Mo18  1  4.75460165  1.59458169  1.55358389  1
  Mo  Mo19  1  3.16614196  0.03226701  3.09721688  1
  Mo  Mo20  1  4.87515879  1.60397004  4.70272300  1
  Mo  Mo21  1  3.21471236  -0.02189273  6.27652979  1
  Mo  Mo22  1  4.74816400  1.56074630  7.92263740  1
  Mo  Mo23  1  3.25789146  3.11312480  0.02785877  1
  Mo  Mo24  1  4.74521529  4.73102778  1.57795206  1
  Mo  Mo25  1  3.17716287  3.17838123  3.10000190  1
  Mo  Mo26  1  4.75968644  4.75277175  4.71925480  1
  Mo  Mo27  1  3.32497752  3.12717168  6.32631060  1
  Mo  Mo28  1  4.75361306  4.75546532  7.88277914  1
  Mo  Mo29  1  3.07493390  6.45279041  0.08737094  1
  Mo  Mo30  1  4.66220123  7.85532728  1.50486904  1
  Mo  Mo31  1  3.12225021  6.34077885  3.20916296  1
  Mo  Mo32  1  4.80943650  7.83395817  4.77824733  1
  Mo  Mo33  1  3.22335455  6.30548173  6.32331364  1
  Mo  Mo34  1  4.71056176  7.88479849  7.88686003  1
  Mo  Mo35  1  6.24401031  -0.01777851  0.00432235  1
  Mo  Mo36  1  7.90762760  1.51161108  1.57531795  1
  Mo  Mo37  1  6.22354789  -0.05507051  3.08365093  1
  Mo  Mo38  1  7.95688323  1.63238154  4.84455618  1
  Mo  Mo39  1  6.20679552  -0.01023728  6.39327914  1
  Mo  Mo40  1  7.91290948  1.41863670  7.91569416  1
  Mo  Mo41  1  6.35910660  3.04653934  0.01463075  1
  Mo  Mo42  1  7.85764890  4.70773961  1.53497875  1
  Mo  Mo43  1  6.33237345  3.11561618  3.15336686  1
  Mo  Mo44  1  7.89452703  4.66983644  4.78183563  1
  Mo  Mo45  1  6.46904119  3.19122529  6.37303825  1
  Mo  Mo46  1  7.94088630  4.80823442  7.90258588  1
  Mo  Mo47  1  6.30922643  6.30968821  0.03322835  1
  Mo  Mo48  1  7.83818196  7.95995924  1.57038688  1
  Mo  Mo49  1  6.26248329  6.25852687  3.10802217  1
  Mo  Mo50  1  7.86533312  7.86462587  4.79006369  1
  Mo  Mo51  1  6.28646110  6.29364913  6.33865796  1
  Mo  Mo52  1  7.80291154  7.96196238  7.81776699  1
