# generated using pymatgen
data_Mo
_symmetry_space_group_name_H-M   'P 1'
_cell_length_a   9.46602123
_cell_length_b   9.46602137
_cell_length_c   9.46602266
_cell_angle_alpha   90.00002705
_cell_angle_beta   90.00001288
_cell_angle_gamma   90.00006527
_symmetry_Int_Tables_number   1
_chemical_formula_structural   Mo
_chemical_formula_sum   Mo53
_cell_volume   848.20825455
_cell_formula_units_Z   53
loop_
 _symmetry_equiv_pos_site_id
 _symmetry_equiv_pos_as_xyz
  1  'x, y, z'
loop_
 _atom_site_type_symbol
 _atom_site_label
 _atom_site_symmetry_multiplicity
 _atom_site_fract_x
 _atom_site_fract_y
 _atom_site_fract_z
 _atom_site_occupancy
  Mo  Mo0  1  1.47700377  1.52556260  1.50582966  1
  Mo  Mo1  1  -0.01560406  -0.00549704  3.17560700  1
  Mo  Mo2  1  1.53225877  1.61656376  4.72147285  1
  Mo  Mo3  1  0.03571528  -0.01088734  6.36027489  1
  Mo  Mo4  1  1.56829387  1.54357090  7.88779174  1
  Mo  Mo5  1  0.03945325  3.11069833  -0.03025062  1
  Mo  Mo6  1  1.64043370  4.75839296  1.54474102  1
  Mo  Mo7  1  0.04156530  3.14643388  3.09007166  1
  Mo  Mo8  1  1.53182058  4.78851543  4.69731680  1
  Mo  Mo9  1  0.04257906  3.19882751  6.31988546  1
  Mo  Mo10  1  1.57392726  4.76451977  7.85823041  1
  Mo  Mo11  1  -0.03795643  6.32221675  0.03226168  1
  Mo  Mo12  1  1.59827642  7.93713280  1.51583224  1
  Mo  Mo13  1  -0.02673898  6.33846439  3.15396273  1
  Mo  Mo14  1  1.59508751  7.96469269  4.73802138  1
  Mo  Mo15  1  -0.08144274  6.27714410  6.34795709  1
  Mo  Mo16  1  1.56945697  7.92681341  7.88495978  1
  Mo  Mo17  1  3.13798035  -0.03478164  0.00871125  1
  Mo  Mo18  1  4.69741656  1.56328059  1.54145594  1
  Mo  Mo19  1  3.15686978  -0.00998662  3.13654365  1
  Mo  Mo20  1  4.68444943  1.56024610  4.71241061  1
  Mo  Mo21  1  3.21011354  -0.00476711  6.37094115  1
  Mo  Mo22  1  4.76375930  1.60157423  7.93842922  1
  Mo  Mo23  1  3.13952580  3.13534328  0.04448698  1
  Mo  Mo24  1  4.80656741  4.70547974  1.58071638  1
  Mo  Mo25  1  3.17008273  3.16493096  3.16347354  1
  Mo  Mo26  1  4.72975061  4.72373493  4.76420231  1
  Mo  Mo27  1  3.12083792  3.13830794  6.33461142  1
  Mo  Mo28  1  4.69109915  4.75351871  7.84134620  1
  Mo  Mo29  1  3.11794232  6.28355316  -0.04283819  1
  Mo  Mo30  1  4.71146791  7.81549030  1.52628805  1
  Mo  Mo31  1  3.14676473  6.29832619  3.17357870  1
  Mo  Mo32  1  4.73427538  7.89047784  4.69650695  1
  Mo  Mo33  1  3.19697812  6.34018000  6.30920263  1
  Mo  Mo34  1  4.76508395  7.94203588  7.82964040  1
  Mo  Mo35  1  6.35838160  0.03214931  0.06057776  1
  Mo  Mo36  1  7.89074278  1.53693186  1.59443419  1
  Mo  Mo37  1  6.27362217  -0.00505754  3.16498828  1
  Mo  Mo38  1  7.85865749  1.53715934  4.73120381  1
  Mo  Mo39  1  6.35419980  -0.02869418  6.28420999  1
  Mo  Mo40  1  7.86799476  1.54280901  7.92091410  1
  Mo  Mo41  1  6.31578255  3.19800724  -0.01279800  1
  Mo  Mo42  1  7.94239922  4.69252850  1.58775253  1
  Mo  Mo43  1  6.29907734  3.15795269  3.18650937  1
  Mo  Mo44  1  7.87476948  4.69277797  4.70830736  1
  Mo  Mo45  1  6.31923028  3.12979352  6.32162274  1
  Mo  Mo46  1  7.88269230  4.73846249  7.97947477  1
  Mo  Mo47  1  6.27000857  6.38643029  0.03299926  1
  Mo  Mo48  1  7.91121096  7.88406735  1.53358035  1
  Mo  Mo49  1  6.28289594  6.31477047  3.19287073  1
  Mo  Mo50  1  7.94838223  7.86031208  4.68595461  1
  Mo  Mo51  1  6.32464807  6.31724596  6.33323933  1
  Mo  Mo52  1  7.94554261  7.92755367  7.94592181  1
