# generated using pymatgen
data_Mo
_symmetry_space_group_name_H-M   'P 1'
_cell_length_a   9.44236900
_cell_length_b   9.44236900
_cell_length_c   9.44236900
_cell_angle_alpha   90.00000000
_cell_angle_beta   90.00000000
_cell_angle_gamma   90.00000000
_symmetry_Int_Tables_number   1
_chemical_formula_structural   Mo
_chemical_formula_sum   Mo53
_cell_volume   841.86587335
_cell_formula_units_Z   53
loop_
 _symmetry_equiv_pos_site_id
 _symmetry_equiv_pos_as_xyz
  1  'x, y, z'
loop_
 _atom_site_type_symbol
 _atom_site_label
 _atom_site_symmetry_multiplicity
 _atom_site_fract_x
 _atom_site_fract_y
 _atom_site_fract_z
 _atom_site_occupancy
  Mo  Mo0  1  1.11230138  0.82527312  0.86549428  1
  Mo  Mo1  1  -0.00704164  -0.02359744  3.01908772  1
  Mo  Mo2  1  1.55911378  1.54501616  4.71414080  1
  Mo  Mo3  1  -0.03266848  0.00710796  6.36306620  1
  Mo  Mo4  1  1.59485486  1.54447294  7.91953673  1
  Mo  Mo5  1  -0.02416725  3.09183348  -0.01324349  1
  Mo  Mo6  1  1.54431475  4.68848106  1.54743908  1
  Mo  Mo7  1  -0.03181049  3.08903681  3.19446295  1
  Mo  Mo8  1  1.56988625  4.72032520  4.67001742  1
  Mo  Mo9  1  0.01526184  3.14328875  6.34767024  1
  Mo  Mo10  1  1.60117474  4.76884025  7.85610994  1
  Mo  Mo11  1  0.01593897  6.32792681  0.01866157  1
  Mo  Mo12  1  1.52589366  7.87318153  1.55241060  1
  Mo  Mo13  1  -0.00913376  6.25240110  3.16483330  1
  Mo  Mo14  1  1.59605521  7.91798160  4.77880432  1
  Mo  Mo15  1  0.04707713  6.31527329  6.27933156  1
  Mo  Mo16  1  1.53817061  7.90692496  7.91491389  1
  Mo  Mo17  1  3.13736391  0.00045013  0.00923051  1
  Mo  Mo18  1  4.73138976  1.61237963  1.53412605  1
  Mo  Mo19  1  3.16095847  -0.04613488  3.16715821  1
  Mo  Mo20  1  4.73404997  1.58005648  4.70216769  1
  Mo  Mo21  1  3.12705457  0.04404486  6.31590527  1
  Mo  Mo22  1  4.68526584  1.59168718  7.80841767  1
  Mo  Mo23  1  3.17573815  3.24964244  -0.06703253  1
  Mo  Mo24  1  4.74165209  4.73871394  1.57283848  1
  Mo  Mo25  1  3.17640266  3.11467291  3.07207081  1
  Mo  Mo26  1  4.67717274  4.72565595  4.71007934  1
  Mo  Mo27  1  3.15434255  3.18030110  6.19304210  1
  Mo  Mo28  1  4.77259247  4.71402223  7.85952685  1
  Mo  Mo29  1  3.14098995  6.29878214  0.01094048  1
  Mo  Mo30  1  4.67112201  7.90244915  1.57287115  1
  Mo  Mo31  1  3.20890402  6.25331083  3.07561648  1
  Mo  Mo32  1  4.71277922  7.91654769  4.79879985  1
  Mo  Mo33  1  3.18631974  6.29429635  6.31183931  1
  Mo  Mo34  1  4.70563310  7.83553041  7.85902224  1
  Mo  Mo35  1  6.26026520  0.00319662  0.01697983  1
  Mo  Mo36  1  7.88675432  1.50502898  1.54756676  1
  Mo  Mo37  1  6.32323999  0.05113397  3.21750075  1
  Mo  Mo38  1  7.89231977  1.57153364  4.77090876  1
  Mo  Mo39  1  6.26694117  -0.02225523  6.27359331  1
  Mo  Mo40  1  7.84001600  1.50477124  7.84330024  1
  Mo  Mo41  1  6.30944568  3.24646700  -0.01597256  1
  Mo  Mo42  1  7.86177865  4.72506497  1.65013531  1
  Mo  Mo43  1  6.30471573  3.14817339  3.14849444  1
  Mo  Mo44  1  7.95855202  4.71945890  4.79207560  1
  Mo  Mo45  1  6.26250273  3.15781470  6.22533014  1
  Mo  Mo46  1  7.92914577  4.75222372  7.86251908  1
  Mo  Mo47  1  6.28349638  6.32503634  -0.00297166  1
  Mo  Mo48  1  7.85547900  7.87058950  1.61773009  1
  Mo  Mo49  1  6.21397971  6.29627819  3.17083823  1
  Mo  Mo50  1  7.88841128  7.81294566  4.81969273  1
  Mo  Mo51  1  6.27450405  6.21462134  6.29851821  1
  Mo  Mo52  1  7.92214309  7.88363393  7.86630772  1
