# generated using pymatgen
data_Mo
_symmetry_space_group_name_H-M   'P 1'
_cell_length_a   9.46602123
_cell_length_b   9.46602137
_cell_length_c   9.46602266
_cell_angle_alpha   90.00002705
_cell_angle_beta   90.00001288
_cell_angle_gamma   90.00006527
_symmetry_Int_Tables_number   1
_chemical_formula_structural   Mo
_chemical_formula_sum   Mo53
_cell_volume   848.20825455
_cell_formula_units_Z   53
loop_
 _symmetry_equiv_pos_site_id
 _symmetry_equiv_pos_as_xyz
  1  'x, y, z'
loop_
 _atom_site_type_symbol
 _atom_site_label
 _atom_site_symmetry_multiplicity
 _atom_site_fract_x
 _atom_site_fract_y
 _atom_site_fract_z
 _atom_site_occupancy
  Mo  Mo0  1  1.56865414  1.48413611  1.54269479  1
  Mo  Mo1  1  0.02084698  -0.01938387  3.15199971  1
  Mo  Mo2  1  1.52662747  1.57852285  4.77540776  1
  Mo  Mo3  1  -0.02607810  0.01784237  6.32802412  1
  Mo  Mo4  1  1.49459319  1.55912946  7.97724475  1
  Mo  Mo5  1  0.00194866  3.16878688  0.05485070  1
  Mo  Mo6  1  1.55943653  4.68456586  1.49294382  1
  Mo  Mo7  1  0.03269484  3.14037178  3.25389647  1
  Mo  Mo8  1  1.57660260  4.75328700  4.69050325  1
  Mo  Mo9  1  -0.02551468  3.12251214  6.32341374  1
  Mo  Mo10  1  1.49035171  4.78990288  7.85791004  1
  Mo  Mo11  1  -0.00062677  6.33567871  0.03183596  1
  Mo  Mo12  1  1.56645458  7.81637067  1.56519094  1
  Mo  Mo13  1  -0.00857689  6.24919158  3.18551281  1
  Mo  Mo14  1  1.57106351  7.93420205  4.74125428  1
  Mo  Mo15  1  0.01511893  6.34547775  6.28398360  1
  Mo  Mo16  1  1.50610608  7.96476872  7.88710997  1
  Mo  Mo17  1  3.13923642  -0.01322338  0.02637565  1
  Mo  Mo18  1  4.69376671  1.53802862  1.55680453  1
  Mo  Mo19  1  3.12530624  -0.01459201  3.27756048  1
  Mo  Mo20  1  4.72824368  1.58265103  4.76024808  1
  Mo  Mo21  1  3.19766888  0.00729605  6.32110274  1
  Mo  Mo22  1  4.65774972  1.56920448  7.89658444  1
  Mo  Mo23  1  3.17856791  3.13113900  -0.08711363  1
  Mo  Mo24  1  4.67515462  4.71624457  1.55159282  1
  Mo  Mo25  1  3.14279618  3.15245842  3.15344092  1
  Mo  Mo26  1  4.73257390  4.73622348  4.70966687  1
  Mo  Mo27  1  3.16357082  3.20866622  6.30830740  1
  Mo  Mo28  1  4.76836386  4.78266996  7.90985272  1
  Mo  Mo29  1  3.18399384  6.27352040  -0.01534639  1
  Mo  Mo30  1  4.75992905  7.92749304  1.49575632  1
  Mo  Mo31  1  3.18945093  6.28640317  3.12119491  1
  Mo  Mo32  1  4.79617341  7.91085236  4.69889320  1
  Mo  Mo33  1  3.10554215  6.33129966  6.25879316  1
  Mo  Mo34  1  4.78932923  7.93569469  7.88399581  1
  Mo  Mo35  1  6.26900780  0.04604420  -0.09149607  1
  Mo  Mo36  1  7.96463467  1.48862628  1.54913317  1
  Mo  Mo37  1  6.28820396  0.03716332  3.11447509  1
  Mo  Mo38  1  7.92206226  1.51413381  4.71543221  1
  Mo  Mo39  1  6.35170043  0.06908867  6.27476664  1
  Mo  Mo40  1  7.90349394  1.64058906  7.91354300  1
  Mo  Mo41  1  6.31090900  3.19991309  0.08579038  1
  Mo  Mo42  1  7.95491341  4.70296900  1.61682799  1
  Mo  Mo43  1  6.31334999  3.08704518  3.15419656  1
  Mo  Mo44  1  7.92389683  4.68353740  4.78952132  1
  Mo  Mo45  1  6.26789691  3.16658149  6.34674492  1
  Mo  Mo46  1  7.89088822  4.77475011  7.95900467  1
  Mo  Mo47  1  6.30406334  6.29883230  0.00603901  1
  Mo  Mo48  1  7.94682580  7.92172959  1.56537395  1
  Mo  Mo49  1  6.33921979  6.22985349  3.14751709  1
  Mo  Mo50  1  7.91424813  7.87010664  4.69708727  1
  Mo  Mo51  1  6.30436279  6.28832907  6.26144552  1
  Mo  Mo52  1  7.91853501  7.97862399  7.90854648  1
