# generated using pymatgen
data_Mo
_symmetry_space_group_name_H-M   'P 1'
_cell_length_a   9.46603830
_cell_length_b   9.46603830
_cell_length_c   9.46603730
_cell_angle_alpha   90.00000000
_cell_angle_beta   90.00000000
_cell_angle_gamma   90.00000000
_symmetry_Int_Tables_number   1
_chemical_formula_structural   Mo
_chemical_formula_sum   Mo53
_cell_volume   848.21261229
_cell_formula_units_Z   53
loop_
 _symmetry_equiv_pos_site_id
 _symmetry_equiv_pos_as_xyz
  1  'x, y, z'
loop_
 _atom_site_type_symbol
 _atom_site_label
 _atom_site_symmetry_multiplicity
 _atom_site_fract_x
 _atom_site_fract_y
 _atom_site_fract_z
 _atom_site_occupancy
  Mo  Mo0  1  1.67925280  1.60272077  1.55879806  1
  Mo  Mo1  1  0.00268304  -0.01017103  3.09118277  1
  Mo  Mo2  1  1.58808098  1.54693990  4.69082085  1
  Mo  Mo3  1  0.05127843  0.06335893  6.34886647  1
  Mo  Mo4  1  1.59228335  1.55620085  7.88691190  1
  Mo  Mo5  1  0.03019349  3.17810104  0.04560965  1
  Mo  Mo6  1  1.60133947  4.76229222  1.52123421  1
  Mo  Mo7  1  0.03156687  3.13432149  3.17270232  1
  Mo  Mo8  1  1.55932688  4.72107370  4.72333599  1
  Mo  Mo9  1  0.06862499  3.19891432  6.39054025  1
  Mo  Mo10  1  1.52704346  4.75735520  7.90494008  1
  Mo  Mo11  1  -0.02313484  6.42035302  -0.06723968  1
  Mo  Mo12  1  1.51670704  7.94830532  1.62497678  1
  Mo  Mo13  1  0.02131543  6.22506894  3.18123816  1
  Mo  Mo14  1  1.52579719  7.86510821  4.72399984  1
  Mo  Mo15  1  0.02362614  6.30328800  6.26207138  1
  Mo  Mo16  1  1.46994049  7.84226540  7.90086556  1
  Mo  Mo17  1  3.06825678  -0.01927197  0.02530136  1
  Mo  Mo18  1  4.73951661  1.52818653  1.47094487  1
  Mo  Mo19  1  3.15038368  0.02830435  3.19902127  1
  Mo  Mo20  1  4.71519105  1.56241629  4.76285385  1
  Mo  Mo21  1  3.14986963  0.04899195  6.36596697  1
  Mo  Mo22  1  4.70965938  1.51331233  7.89060423  1
  Mo  Mo23  1  3.20339228  3.15406819  0.01456850  1
  Mo  Mo24  1  4.76456265  4.76587605  1.53795104  1
  Mo  Mo25  1  3.21560172  3.18772642  3.15801367  1
  Mo  Mo26  1  4.74778417  4.65600185  4.71547508  1
  Mo  Mo27  1  3.17741815  3.18097903  6.31959496  1
  Mo  Mo28  1  4.69677881  4.73716149  7.86436013  1
  Mo  Mo29  1  3.12947254  6.40694111  0.00804715  1
  Mo  Mo30  1  4.67269558  7.92337554  1.60250193  1
  Mo  Mo31  1  3.15448992  6.28509056  3.17033896  1
  Mo  Mo32  1  4.71356872  7.91640460  4.71730456  1
  Mo  Mo33  1  3.16575360  6.35476918  6.29354523  1
  Mo  Mo34  1  4.69325545  7.87703187  7.93639224  1
  Mo  Mo35  1  6.32553419  -0.04210243  0.01520942  1
  Mo  Mo36  1  7.87647183  1.60571692  1.54932515  1
  Mo  Mo37  1  6.28546466  -0.04742838  3.18285320  1
  Mo  Mo38  1  7.87445778  1.56499705  4.74015181  1
  Mo  Mo39  1  6.35493969  -0.01485745  6.34544787  1
  Mo  Mo40  1  7.91639136  1.54382533  7.93725460  1
  Mo  Mo41  1  6.35709959  3.14978408  -0.06325577  1
  Mo  Mo42  1  7.90820673  4.76731611  1.57060427  1
  Mo  Mo43  1  6.34576282  3.08185761  3.08634352  1
  Mo  Mo44  1  7.88067138  4.68541674  4.77676692  1
  Mo  Mo45  1  6.30345299  3.10260227  6.28328756  1
  Mo  Mo46  1  7.87930276  4.69196750  7.91633348  1
  Mo  Mo47  1  6.29662731  6.29889232  0.01839314  1
  Mo  Mo48  1  7.85836061  7.96199692  1.53265080  1
  Mo  Mo49  1  6.35600703  6.29603425  3.20111488  1
  Mo  Mo50  1  7.86867274  7.97990640  4.73709538  1
  Mo  Mo51  1  6.30122651  6.28534663  6.31414766  1
  Mo  Mo52  1  7.86363567  7.85172313  7.82849114  1
