# generated using pymatgen
data_Mo
_symmetry_space_group_name_H-M   'P 1'
_cell_length_a   9.46603830
_cell_length_b   9.46603830
_cell_length_c   9.46603730
_cell_angle_alpha   90.00000000
_cell_angle_beta   90.00000000
_cell_angle_gamma   90.00000000
_symmetry_Int_Tables_number   1
_chemical_formula_structural   Mo
_chemical_formula_sum   Mo53
_cell_volume   848.21261229
_cell_formula_units_Z   53
loop_
 _symmetry_equiv_pos_site_id
 _symmetry_equiv_pos_as_xyz
  1  'x, y, z'
loop_
 _atom_site_type_symbol
 _atom_site_label
 _atom_site_symmetry_multiplicity
 _atom_site_fract_x
 _atom_site_fract_y
 _atom_site_fract_z
 _atom_site_occupancy
  Mo  Mo0  1  1.52698246  1.56018399  1.55050489  1
  Mo  Mo1  1  -0.01644077  -0.01192797  3.14496993  1
  Mo  Mo2  1  1.57134627  1.51660580  4.71510662  1
  Mo  Mo3  1  -0.03368684  -0.04860903  6.37397374  1
  Mo  Mo4  1  1.49414352  1.55103757  7.94406297  1
  Mo  Mo5  1  -0.01070100  3.12835191  -0.02705842  1
  Mo  Mo6  1  1.58174877  4.76697221  1.54283781  1
  Mo  Mo7  1  -0.03063735  3.20593083  3.23516944  1
  Mo  Mo8  1  1.57967813  4.73987150  4.70488791  1
  Mo  Mo9  1  0.06722183  3.23871689  6.31548212  1
  Mo  Mo10  1  1.51311881  4.72553823  7.87009294  1
  Mo  Mo11  1  -0.00680581  6.31833502  -0.04503583  1
  Mo  Mo12  1  1.55961439  7.95050495  1.54271004  1
  Mo  Mo13  1  0.06375664  6.33979059  3.09151570  1
  Mo  Mo14  1  1.55467275  7.93553531  4.80883046  1
  Mo  Mo15  1  0.03026414  6.35164093  6.32142741  1
  Mo  Mo16  1  1.57380208  7.90585407  7.97659947  1
  Mo  Mo17  1  3.13449089  0.08166927  0.02276420  1
  Mo  Mo18  1  4.75416742  1.51668907  1.55711414  1
  Mo  Mo19  1  3.12743483  -0.06255029  3.14248848  1
  Mo  Mo20  1  4.72057314  1.48791031  4.72866193  1
  Mo  Mo21  1  3.15583812  0.02709015  6.37502463  1
  Mo  Mo22  1  4.73886042  1.57027409  7.82788730  1
  Mo  Mo23  1  3.13452043  3.20377675  -0.02623334  1
  Mo  Mo24  1  4.70292116  4.68466604  1.53570603  1
  Mo  Mo25  1  3.16369121  3.10830341  3.16290490  1
  Mo  Mo26  1  4.69757062  4.77763146  4.70413137  1
  Mo  Mo27  1  3.16149859  3.16422991  6.26661954  1
  Mo  Mo28  1  4.70209248  4.72075976  7.89274765  1
  Mo  Mo29  1  3.17134675  6.37022264  -0.02668708  1
  Mo  Mo30  1  4.76057278  7.93342699  1.56892225  1
  Mo  Mo31  1  3.17699635  6.34752065  3.17671146  1
  Mo  Mo32  1  4.71821548  7.90361995  4.70901898  1
  Mo  Mo33  1  3.16240471  6.33078254  6.37913069  1
  Mo  Mo34  1  4.69943368  7.96028010  7.95626897  1
  Mo  Mo35  1  6.37640701  -0.01042371  0.02278261  1
  Mo  Mo36  1  8.03785682  1.54012454  1.55465569  1
  Mo  Mo37  1  6.32313910  -0.04859110  3.16302650  1
  Mo  Mo38  1  7.85058291  1.55539661  4.73727001  1
  Mo  Mo39  1  6.25920857  -0.02335132  6.29537531  1
  Mo  Mo40  1  7.90817879  1.52580405  7.87775897  1
  Mo  Mo41  1  6.30533815  3.14285985  -0.01834365  1
  Mo  Mo42  1  7.93948897  4.69628200  1.57557214  1
  Mo  Mo43  1  6.30949547  3.13240219  3.13850008  1
  Mo  Mo44  1  7.92432390  4.81130111  4.75790836  1
  Mo  Mo45  1  6.34671847  3.15219940  6.27196251  1
  Mo  Mo46  1  7.85209717  4.69365738  7.92711635  1
  Mo  Mo47  1  6.29189076  6.28471992  -0.00888485  1
  Mo  Mo48  1  7.94759968  7.92702592  1.53409923  1
  Mo  Mo49  1  6.33989492  6.31276260  3.12864731  1
  Mo  Mo50  1  7.90321241  7.86511660  4.69936150  1
  Mo  Mo51  1  6.32023777  6.25221470  6.34734101  1
  Mo  Mo52  1  7.84948364  7.87572021  7.96244724  1
