# generated using pymatgen
data_Mo
_symmetry_space_group_name_H-M   'P 1'
_cell_length_a   9.44236900
_cell_length_b   9.44236900
_cell_length_c   9.44236900
_cell_angle_alpha   90.00000000
_cell_angle_beta   90.00000000
_cell_angle_gamma   90.00000000
_symmetry_Int_Tables_number   1
_chemical_formula_structural   Mo
_chemical_formula_sum   Mo53
_cell_volume   841.86587335
_cell_formula_units_Z   53
loop_
 _symmetry_equiv_pos_site_id
 _symmetry_equiv_pos_as_xyz
  1  'x, y, z'
loop_
 _atom_site_type_symbol
 _atom_site_label
 _atom_site_symmetry_multiplicity
 _atom_site_fract_x
 _atom_site_fract_y
 _atom_site_fract_z
 _atom_site_occupancy
  Mo  Mo0  1  1.49843303  1.53077644  1.54160366  1
  Mo  Mo1  1  0.01999849  0.00976720  3.06133587  1
  Mo  Mo2  1  1.57208300  1.52248911  4.70321758  1
  Mo  Mo3  1  0.01396740  -0.03414309  6.36208128  1
  Mo  Mo4  1  1.56809393  1.48916408  7.82970616  1
  Mo  Mo5  1  -0.01235390  3.07683094  -0.01973362  1
  Mo  Mo6  1  1.56026956  4.74115759  1.61220919  1
  Mo  Mo7  1  -0.02190428  3.14548564  3.15999062  1
  Mo  Mo8  1  1.53484056  4.68792673  4.77137842  1
  Mo  Mo9  1  -0.02796814  3.15921841  6.25189847  1
  Mo  Mo10  1  1.58137028  4.65913791  7.95295503  1
  Mo  Mo11  1  0.05254939  6.36347021  -0.04492235  1
  Mo  Mo12  1  1.55956998  7.90040973  1.54170713  1
  Mo  Mo13  1  -0.00096313  6.28466359  3.09812468  1
  Mo  Mo14  1  1.56332938  7.84468578  4.69298936  1
  Mo  Mo15  1  -0.02591292  6.28595202  6.23549608  1
  Mo  Mo16  1  1.56199165  7.81731506  7.85071348  1
  Mo  Mo17  1  3.07298362  -0.05424592  -0.03633551  1
  Mo  Mo18  1  4.69224307  1.55493669  1.55534172  1
  Mo  Mo19  1  3.14246578  0.03161570  3.14311594  1
  Mo  Mo20  1  4.73166769  1.58256684  4.74333716  1
  Mo  Mo21  1  3.13304410  -0.01352801  6.22924241  1
  Mo  Mo22  1  4.76315121  1.48508786  7.87990848  1
  Mo  Mo23  1  3.09800797  3.12223773  0.06908257  1
  Mo  Mo24  1  4.70356165  4.73474511  1.58942573  1
  Mo  Mo25  1  3.13851791  3.19646635  3.18789101  1
  Mo  Mo26  1  4.69395458  4.70882620  4.72668916  1
  Mo  Mo27  1  3.14055605  3.13835705  6.37164680  1
  Mo  Mo28  1  4.77190218  4.69556851  7.90281912  1
  Mo  Mo29  1  3.16338234  6.28363816  0.00160213  1
  Mo  Mo30  1  4.77151860  7.91596805  1.57120687  1
  Mo  Mo31  1  3.11659502  6.33223725  3.15614060  1
  Mo  Mo32  1  4.76122762  7.89532333  4.72323484  1
  Mo  Mo33  1  3.15504449  6.28567238  6.31221712  1
  Mo  Mo34  1  4.76497929  7.84820254  7.91162415  1
  Mo  Mo35  1  6.35227051  -0.01809358  0.01065087  1
  Mo  Mo36  1  7.89271354  1.62596163  1.57395807  1
  Mo  Mo37  1  6.28987038  0.03689626  3.15972651  1
  Mo  Mo38  1  7.90601461  1.60499756  4.67420973  1
  Mo  Mo39  1  6.28942905  0.01282141  6.28711873  1
  Mo  Mo40  1  7.93600508  1.53706255  7.85716112  1
  Mo  Mo41  1  6.22017850  3.11007593  0.03336134  1
  Mo  Mo42  1  7.88561359  4.74181729  1.51173044  1
  Mo  Mo43  1  6.23413826  3.18334135  3.20334917  1
  Mo  Mo44  1  7.85157439  4.74757405  4.70490980  1
  Mo  Mo45  1  6.26427026  3.18726414  6.36522499  1
  Mo  Mo46  1  7.91446360  4.74465822  7.85539885  1
  Mo  Mo47  1  6.29914192  6.25038677  -0.02733565  1
  Mo  Mo48  1  7.95225200  7.94963209  1.52758209  1
  Mo  Mo49  1  6.23967543  6.32907506  3.10907245  1
  Mo  Mo50  1  7.87856897  7.90234235  4.74689233  1
  Mo  Mo51  1  6.26077583  6.33553255  6.31217724  1
  Mo  Mo52  1  7.97415397  7.94398356  7.90917798  1
