# generated using pymatgen
data_Mo
_symmetry_space_group_name_H-M   'P 1'
_cell_length_a   9.44236900
_cell_length_b   9.44236900
_cell_length_c   9.44236900
_cell_angle_alpha   90.00000000
_cell_angle_beta   90.00000000
_cell_angle_gamma   90.00000000
_symmetry_Int_Tables_number   1
_chemical_formula_structural   Mo
_chemical_formula_sum   Mo53
_cell_volume   841.86587335
_cell_formula_units_Z   53
loop_
 _symmetry_equiv_pos_site_id
 _symmetry_equiv_pos_as_xyz
  1  'x, y, z'
loop_
 _atom_site_type_symbol
 _atom_site_label
 _atom_site_symmetry_multiplicity
 _atom_site_fract_x
 _atom_site_fract_y
 _atom_site_fract_z
 _atom_site_occupancy
  Mo  Mo0  1  1.48143892  1.46615026  1.53063642  1
  Mo  Mo1  1  0.01966208  -0.00207654  3.07280894  1
  Mo  Mo2  1  1.59519111  1.54149313  4.68831996  1
  Mo  Mo3  1  0.01906833  0.01232203  6.40047108  1
  Mo  Mo4  1  1.50591091  1.52547850  7.96504435  1
  Mo  Mo5  1  -0.02255411  3.09108320  0.03697473  1
  Mo  Mo6  1  1.53990807  4.68367634  1.51194994  1
  Mo  Mo7  1  0.01835470  3.10269396  3.14372767  1
  Mo  Mo8  1  1.48336644  4.61642101  4.68355058  1
  Mo  Mo9  1  -0.02547452  3.09407654  6.27287384  1
  Mo  Mo10  1  1.58613988  4.66381082  7.94615532  1
  Mo  Mo11  1  0.00989315  6.37596854  0.00445062  1
  Mo  Mo12  1  1.52686030  7.91269926  1.50180346  1
  Mo  Mo13  1  -0.04958930  6.33468471  3.10039770  1
  Mo  Mo14  1  1.53655993  7.85668395  4.67317388  1
  Mo  Mo15  1  0.01862560  6.31459905  6.30533234  1
  Mo  Mo16  1  1.58994112  7.83630523  7.90589412  1
  Mo  Mo17  1  3.12666675  0.02312704  0.00430923  1
  Mo  Mo18  1  4.75952874  1.62034750  1.56242938  1
  Mo  Mo19  1  3.15876371  0.06855504  3.09871324  1
  Mo  Mo20  1  4.70605971  1.60434544  4.72035916  1
  Mo  Mo21  1  3.11535969  0.03470424  6.30285530  1
  Mo  Mo22  1  4.68354986  1.56568052  7.88488870  1
  Mo  Mo23  1  3.16940884  3.14061321  -0.01604811  1
  Mo  Mo24  1  4.70414893  4.76170585  1.61619208  1
  Mo  Mo25  1  3.15768920  3.19041016  3.10309584  1
  Mo  Mo26  1  4.75492583  4.70711677  4.72936627  1
  Mo  Mo27  1  3.15567610  3.13266809  6.29909991  1
  Mo  Mo28  1  4.76542727  4.75570594  7.87479344  1
  Mo  Mo29  1  3.20034456  6.32975058  -0.01835966  1
  Mo  Mo30  1  4.72180629  7.82649507  1.60908331  1
  Mo  Mo31  1  3.08198224  6.30884037  3.10179947  1
  Mo  Mo32  1  4.73220641  7.88175039  4.68637710  1
  Mo  Mo33  1  3.15355541  6.31589516  6.24464493  1
  Mo  Mo34  1  4.72012100  7.89775177  7.90382904  1
  Mo  Mo35  1  6.26940210  -0.05060825  -0.04587298  1
  Mo  Mo36  1  7.84975962  1.58743327  1.65439007  1
  Mo  Mo37  1  6.30853257  0.00761640  3.15639439  1
  Mo  Mo38  1  7.89666872  1.53255451  4.71122481  1
  Mo  Mo39  1  6.23662346  -0.00635256  6.22250667  1
  Mo  Mo40  1  7.92706048  1.60130107  7.88296050  1
  Mo  Mo41  1  6.24911948  3.14629995  -0.01116601  1
  Mo  Mo42  1  7.86853236  4.72458379  1.58105326  1
  Mo  Mo43  1  6.31169671  3.12627126  3.16871569  1
  Mo  Mo44  1  7.93660112  4.70543161  4.73590297  1
  Mo  Mo45  1  6.29868001  3.09601089  6.29976727  1
  Mo  Mo46  1  7.93186694  4.75029202  7.90116320  1
  Mo  Mo47  1  6.30157052  6.26763583  -0.01689819  1
  Mo  Mo48  1  7.85770426  7.90395770  1.58362670  1
  Mo  Mo49  1  6.29620806  6.30502981  3.18542056  1
  Mo  Mo50  1  7.96512050  7.91471161  4.75389983  1
  Mo  Mo51  1  6.33618772  6.34230418  6.32301577  1
  Mo  Mo52  1  7.91144960  7.90730616  7.91620929  1
