# generated using pymatgen
data_Mo
_symmetry_space_group_name_H-M   'P 1'
_cell_length_a   9.53391917
_cell_length_b   12.74229730
_cell_length_c   15.92035609
_cell_angle_alpha   90.00000000
_cell_angle_beta   90.00000000
_cell_angle_gamma   90.00000000
_symmetry_Int_Tables_number   1
_chemical_formula_structural   Mo
_chemical_formula_sum   Mo121
_cell_volume   1934.06905611
_cell_formula_units_Z   121
loop_
 _symmetry_equiv_pos_site_id
 _symmetry_equiv_pos_as_xyz
  1  'x, y, z'
loop_
 _atom_site_type_symbol
 _atom_site_label
 _atom_site_symmetry_multiplicity
 _atom_site_fract_x
 _atom_site_fract_y
 _atom_site_fract_z
 _atom_site_occupancy
  Mo  Mo0  1  1.56701305  1.61161577  1.59483514  1
  Mo  Mo1  1  -0.06487452  3.18519214  3.13846453  1
  Mo  Mo2  1  0.01067050  3.14804637  6.38644999  1
  Mo  Mo3  1  1.56578181  4.65683361  1.69144789  1
  Mo  Mo4  1  3.13097779  -0.06659259  -0.04641254  1
  Mo  Mo5  1  4.83972263  4.74828309  1.56676482  1
  Mo  Mo6  1  3.22783877  3.19948050  3.25033872  1
  Mo  Mo7  1  0.20938851  0.13023259  0.08459335  1
  Mo  Mo8  1  3.20865523  3.22429399  6.34276077  1
  Mo  Mo9  1  3.25854037  0.09836012  6.36696857  1
  Mo  Mo10  1  1.62743325  1.61579604  4.84125176  1
  Mo  Mo11  1  1.62274659  4.70365058  4.70484211  1
  Mo  Mo12  1  0.08459593  6.30252698  3.23657661  1
  Mo  Mo13  1  3.21227945  0.07962241  3.14218805  1
  Mo  Mo14  1  1.52979778  4.61104930  7.87912187  1
  Mo  Mo15  1  3.21796898  3.08132102  -0.09642697  1
  Mo  Mo16  1  1.59607631  1.55143388  7.93542138  1
  Mo  Mo17  1  1.62367995  1.51047523  11.11284875  1
  Mo  Mo18  1  3.13808722  0.03926072  12.78098248  1
  Mo  Mo19  1  1.51485409  4.71379840  11.07074823  1
  Mo  Mo20  1  3.12276620  3.18355379  9.53461551  1
  Mo  Mo21  1  4.70433571  1.77338503  11.12863645  1
  Mo  Mo22  1  0.06728596  -0.01076691  9.51992005  1
  Mo  Mo23  1  2.89396379  6.13631929  9.40949555  1
  Mo  Mo24  1  3.02997626  3.20689773  12.60205528  1
  Mo  Mo25  1  4.70466338  4.76283954  14.26085541  1
  Mo  Mo26  1  -0.00035513  6.18243128  12.63492149  1
  Mo  Mo27  1  1.60875611  4.66074579  14.28230284  1
  Mo  Mo28  1  1.60114029  1.56357749  14.33383626  1
  Mo  Mo29  1  -0.08050830  6.31835439  9.55328272  1
  Mo  Mo30  1  -0.00456194  3.14336964  12.72229992  1
  Mo  Mo31  1  3.22872248  0.03892203  9.59039870  1
  Mo  Mo32  1  0.06244470  0.05886814  12.68595844  1
  Mo  Mo33  1  1.63956694  7.98304263  1.65551350  1
  Mo  Mo34  1  4.76071466  11.16189983  4.74190844  1
  Mo  Mo35  1  1.58571005  11.02517244  1.69904385  1
  Mo  Mo36  1  0.04397469  9.48664674  3.11399857  1
  Mo  Mo37  1  3.12869404  6.35156812  0.06286948  1
  Mo  Mo38  1  3.25548213  6.29956802  3.12300451  1
  Mo  Mo39  1  1.63929885  7.88704550  7.79609250  1
  Mo  Mo40  1  3.21062125  9.57134424  3.14248593  1
  Mo  Mo41  1  3.16273191  6.27957028  6.22424384  1
  Mo  Mo42  1  3.15468912  9.60737792  6.35714843  1
  Mo  Mo43  1  1.55081825  7.93020846  4.67378305  1
  Mo  Mo44  1  1.66361587  11.08891898  8.02172744  1
  Mo  Mo45  1  1.60950082  11.18841124  4.88112810  1
  Mo  Mo46  1  -0.10025782  12.65487952  3.17451807  1
  Mo  Mo47  1  0.07487776  6.22044089  0.05365701  1
  Mo  Mo48  1  0.01911115  12.76787572  6.40616971  1
  Mo  Mo49  1  3.18440772  9.61580795  -0.00248253  1
  Mo  Mo50  1  0.06585176  9.51156945  12.62618364  1
  Mo  Mo51  1  1.50705953  7.94711818  11.10361444  1
  Mo  Mo52  1  1.65204816  11.10838054  11.21889440  1
  Mo  Mo53  1  3.14962514  9.48465094  9.42586908  1
  Mo  Mo54  1  4.74944482  11.34261431  11.16458076  1
  Mo  Mo55  1  4.44368981  7.47911730  10.52284574  1
  Mo  Mo56  1  3.13569424  9.55049257  12.86051672  1
  Mo  Mo57  1  1.65050910  7.96002635  14.40224960  1
  Mo  Mo58  1  3.17311803  6.36246064  12.74573323  1
  Mo  Mo59  1  4.81602123  7.87711614  14.49975599  1
  Mo  Mo60  1  1.61925146  11.13816864  14.32380760  1
  Mo  Mo61  1  4.77533069  1.62799923  1.49017961  1
  Mo  Mo62  1  6.43735786  3.16637598  6.37509079  1
  Mo  Mo63  1  7.92240398  4.77540019  4.68434789  1
  Mo  Mo64  1  7.89975509  1.55186084  1.53309433  1
  Mo  Mo65  1  6.44051539  0.05510144  3.01883551  1
  Mo  Mo66  1  9.54026532  6.31258542  6.26509326  1
  Mo  Mo67  1  7.93947256  4.79846611  1.58332700  1
  Mo  Mo68  1  6.43341590  3.12676774  3.22932817  1
  Mo  Mo69  1  4.84751719  1.67860921  4.71716445  1
  Mo  Mo70  1  4.96343262  4.67823140  4.64391551  1
  Mo  Mo71  1  8.08309093  1.52359193  4.78186421  1
  Mo  Mo72  1  6.39227853  -0.05013794  6.26928345  1
  Mo  Mo73  1  9.50647569  3.16085526  0.02115889  1
  Mo  Mo74  1  4.79979665  1.64773881  7.95365170  1
  Mo  Mo75  1  4.83056776  4.72107662  7.86836836  1
  Mo  Mo76  1  6.29335224  0.08844028  -0.06330468  1
  Mo  Mo77  1  7.94280883  4.74227582  7.90472971  1
  Mo  Mo78  1  6.34973119  0.03145187  9.53050476  1
  Mo  Mo79  1  4.67002974  4.76909504  11.08375571  1
  Mo  Mo80  1  7.97014438  1.58592850  7.99695367  1
  Mo  Mo81  1  7.92159970  1.64701397  11.20390105  1
  Mo  Mo82  1  6.36917289  0.02917347  12.77869873  1
  Mo  Mo83  1  6.39050117  3.16361562  9.50394370  1
  Mo  Mo84  1  7.93387240  4.73572244  11.04225095  1
  Mo  Mo85  1  9.53143812  3.15776722  9.46457376  1
  Mo  Mo86  1  6.43297900  6.39145439  9.37325336  1
  Mo  Mo87  1  4.75976144  1.57552252  14.30712626  1
  Mo  Mo88  1  7.90590137  4.72307243  14.31874362  1
  Mo  Mo89  1  6.37389927  3.17363435  12.66858204  1
  Mo  Mo90  1  6.27134876  6.34493530  12.69171747  1
  Mo  Mo91  1  7.89880187  1.65877034  14.27157912  1
  Mo  Mo92  1  6.36250035  3.26650373  15.92581174  1
  Mo  Mo93  1  4.81200977  8.03159723  1.59713875  1
  Mo  Mo94  1  4.63836499  11.16904897  1.56339876  1
  Mo  Mo95  1  8.07274453  7.89086831  1.63594272  1
  Mo  Mo96  1  6.36644231  6.37033463  3.17232368  1
  Mo  Mo97  1  6.40728180  9.57195987  0.05036086  1
  Mo  Mo98  1  7.96575560  11.15286410  1.60759438  1
  Mo  Mo99  1  6.39782904  9.57750045  3.20542819  1
  Mo  Mo100  1  6.26838981  9.60489558  6.31160242  1
  Mo  Mo101  1  4.70214132  7.96213138  4.74768733  1
  Mo  Mo102  1  4.68801183  7.97744246  7.76854843  1
  Mo  Mo103  1  7.94320601  8.01223497  4.83702185  1
  Mo  Mo104  1  6.26102222  6.36048469  6.21916994  1
  Mo  Mo105  1  7.91433140  11.14690648  4.80313291  1
  Mo  Mo106  1  4.81645813  11.20985867  7.94631390  1
  Mo  Mo107  1  9.37354132  9.53550916  6.30570437  1
  Mo  Mo108  1  9.59708116  9.52519254  9.57518691  1
  Mo  Mo109  1  7.96418676  7.76388163  10.97522772  1
  Mo  Mo110  1  4.78899350  11.17093555  14.29213291  1
  Mo  Mo111  1  6.25990020  9.61049574  9.47726349  1
  Mo  Mo112  1  7.89031226  11.23776019  11.07114541  1
  Mo  Mo113  1  9.56555542  9.55048264  15.89830739  1
  Mo  Mo114  1  8.24194095  11.52015140  14.60639739  1
  Mo  Mo115  1  7.02926731  9.89031524  13.40484464  1
  Mo  Mo116  1  5.52147300  8.81464701  12.03310253  1
  Mo  Mo117  1  7.98346959  7.70019467  14.35230488  1
  Mo  Mo118  1  6.33929542  6.41641682  15.98032397  1
  Mo  Mo119  1  8.05598376  11.11215370  7.90333960  1
  Mo  Mo120  1  7.96537828  7.82458978  7.81666615  1
