# generated using pymatgen
data_Mo
_symmetry_space_group_name_H-M   'P 1'
_cell_length_a   9.53310354
_cell_length_b   12.75381702
_cell_length_c   15.93568024
_cell_angle_alpha   90.00000000
_cell_angle_beta   90.00000000
_cell_angle_gamma   90.00000000
_symmetry_Int_Tables_number   1
_chemical_formula_structural   Mo
_chemical_formula_sum   Mo121
_cell_volume   1937.51511265
_cell_formula_units_Z   121
loop_
 _symmetry_equiv_pos_site_id
 _symmetry_equiv_pos_as_xyz
  1  'x, y, z'
loop_
 _atom_site_type_symbol
 _atom_site_label
 _atom_site_symmetry_multiplicity
 _atom_site_fract_x
 _atom_site_fract_y
 _atom_site_fract_z
 _atom_site_occupancy
  Mo  Mo0  1  1.72072959  1.60668088  1.69959990  1
  Mo  Mo1  1  0.08535493  3.11286662  3.14985352  1
  Mo  Mo2  1  3.16463835  3.14901945  0.05593223  1
  Mo  Mo3  1  1.62980637  4.75933447  1.52296638  1
  Mo  Mo4  1  -0.02235816  0.00267526  6.32601986  1
  Mo  Mo5  1  1.15569894  4.17339257  7.47057804  1
  Mo  Mo6  1  3.25267212  3.24383498  3.21537741  1
  Mo  Mo7  1  4.69243040  1.76220456  4.67456747  1
  Mo  Mo8  1  3.33093539  3.19141785  6.32893909  1
  Mo  Mo9  1  4.80419536  4.88742332  4.67133049  1
  Mo  Mo10  1  1.62577505  1.61293638  4.83822330  1
  Mo  Mo11  1  1.66116332  4.77898469  4.60892442  1
  Mo  Mo12  1  4.88274658  4.77122986  7.92966235  1
  Mo  Mo13  1  3.35261120  -0.09974248  3.11859587  1
  Mo  Mo14  1  4.75138105  1.57986165  1.47115494  1
  Mo  Mo15  1  -0.06557454  6.43806284  6.41681399  1
  Mo  Mo16  1  1.60468507  1.60961997  7.91965355  1
  Mo  Mo17  1  1.56796627  1.62284589  11.17073696  1
  Mo  Mo18  1  3.23263465  0.01074288  12.80322427  1
  Mo  Mo19  1  1.68631440  4.81816598  11.19764555  1
  Mo  Mo20  1  3.18683048  3.11717597  9.49321005  1
  Mo  Mo21  1  0.11127842  -0.11049400  12.68844078  1
  Mo  Mo22  1  0.00535610  -0.03897396  9.49116460  1
  Mo  Mo23  1  2.40219201  5.52589157  8.74341373  1
  Mo  Mo24  1  3.15888924  3.10671042  12.81841620  1
  Mo  Mo25  1  3.19822940  0.09497122  9.50584021  1
  Mo  Mo26  1  0.06558655  3.18850854  9.63399855  1
  Mo  Mo27  1  1.62278631  4.70348178  14.46172651  1
  Mo  Mo28  1  1.59236273  1.49148035  14.46798201  1
  Mo  Mo29  1  0.04499761  3.24286190  12.72150557  1
  Mo  Mo30  1  3.21597318  0.04918522  15.93335806  1
  Mo  Mo31  1  0.05952159  -0.05479819  15.88976814  1
  Mo  Mo32  1  1.52390967  7.96846632  1.58526323  1
  Mo  Mo33  1  4.81840428  11.05029374  4.73432240  1
  Mo  Mo34  1  1.65680432  11.10679184  1.62339200  1
  Mo  Mo35  1  3.18694963  9.60798361  0.04966471  1
  Mo  Mo36  1  3.22890121  6.42121270  0.03144591  1
  Mo  Mo37  1  3.17285986  6.44222325  3.16726963  1
  Mo  Mo38  1  0.07580427  6.31578268  3.21718456  1
  Mo  Mo39  1  3.23975401  9.40828417  3.22249677  1
  Mo  Mo40  1  3.19434701  6.43387265  6.36690899  1
  Mo  Mo41  1  3.18716808  9.60061602  6.37846678  1
  Mo  Mo42  1  1.63641933  8.00828308  4.87172499  1
  Mo  Mo43  1  3.24726061  12.72259780  6.32671491  1
  Mo  Mo44  1  1.73350869  11.12784210  4.72423416  1
  Mo  Mo45  1  0.19657467  12.63085045  3.18926318  1
  Mo  Mo46  1  0.01883045  6.37628232  -0.00600488  1
  Mo  Mo47  1  0.07678489  9.49588105  6.30164326  1
  Mo  Mo48  1  4.79609299  11.08941544  1.62863471  1
  Mo  Mo49  1  -0.02246380  9.49844283  0.04394321  1
  Mo  Mo50  1  0.03935515  9.54468389  12.78088319  1
  Mo  Mo51  1  1.67381333  7.95828871  11.14243827  1
  Mo  Mo52  1  1.65039988  11.17232566  11.22495131  1
  Mo  Mo53  1  3.20244938  9.75294245  9.62407911  1
  Mo  Mo54  1  1.60788233  11.13797005  14.40284536  1
  Mo  Mo55  1  3.80876634  6.85806515  9.94247421  1
  Mo  Mo56  1  3.20958859  9.57542521  12.81245858  1
  Mo  Mo57  1  1.56112494  8.01863941  14.29818983  1
  Mo  Mo58  1  3.15436145  6.34791411  12.86081460  1
  Mo  Mo59  1  0.03829131  9.61299794  9.48970499  1
  Mo  Mo60  1  -0.06212597  6.49317083  9.61821086  1
  Mo  Mo61  1  0.07052462  6.43613654  12.74394594  1
  Mo  Mo62  1  1.64748065  8.00394395  8.02082387  1
  Mo  Mo63  1  1.58154965  11.18165927  7.86943081  1
  Mo  Mo64  1  7.84795358  4.94283911  8.11314713  1
  Mo  Mo65  1  6.35204473  3.33436102  6.35730730  1
  Mo  Mo66  1  7.93455753  4.92033917  4.80817703  1
  Mo  Mo67  1  8.00300066  1.46679595  1.61930110  1
  Mo  Mo68  1  6.35733708  -0.04923199  3.17650394  1
  Mo  Mo69  1  6.43321731  -0.01783483  0.01158231  1
  Mo  Mo70  1  8.01261228  4.74324890  1.55765959  1
  Mo  Mo71  1  6.39873262  3.18475524  3.18819081  1
  Mo  Mo72  1  4.79850583  4.77143837  1.50415023  1
  Mo  Mo73  1  9.58973343  3.11464398  0.05635611  1
  Mo  Mo74  1  7.84769542  1.48459930  4.72632926  1
  Mo  Mo75  1  6.37296591  -0.02589877  6.30541642  1
  Mo  Mo76  1  9.22573275  3.00264072  6.15856108  1
  Mo  Mo77  1  6.41254437  3.14030147  -0.09752357  1
  Mo  Mo78  1  6.36370181  0.07769472  9.61876690  1
  Mo  Mo79  1  4.81205942  4.71432465  11.20747562  1
  Mo  Mo80  1  7.92946376  1.58127162  7.99756929  1
  Mo  Mo81  1  8.03071352  1.48093537  11.21333395  1
  Mo  Mo82  1  6.42902712  0.09847738  12.69767509  1
  Mo  Mo83  1  6.34311823  3.15460968  9.57500818  1
  Mo  Mo84  1  7.92772612  4.71941842  11.15753091  1
  Mo  Mo85  1  7.95086155  1.54418544  14.29104068  1
  Mo  Mo86  1  4.79119782  4.80672735  14.33701366  1
  Mo  Mo87  1  4.88420620  1.60010763  14.32986451  1
  Mo  Mo88  1  8.03326537  4.73118472  14.33155250  1
  Mo  Mo89  1  6.42679301  3.12670816  12.74037137  1
  Mo  Mo90  1  4.74644616  1.60560850  11.09616741  1
  Mo  Mo91  1  4.78297630  1.70211203  7.91610876  1
  Mo  Mo92  1  4.76857872  7.95717663  1.54433438  1
  Mo  Mo93  1  9.60879782  9.59651519  3.15304084  1
  Mo  Mo94  1  7.98333058  7.95889441  1.46152345  1
  Mo  Mo95  1  6.41838283  6.34918507  3.23078779  1
  Mo  Mo96  1  6.39072955  9.53752482  0.01065580  1
  Mo  Mo97  1  7.95102042  11.14015451  1.54368897  1
  Mo  Mo98  1  6.49562338  9.48086785  3.18401054  1
  Mo  Mo99  1  6.41510614  9.57369750  6.42882853  1
  Mo  Mo100  1  4.85647348  7.99288263  4.72563420  1
  Mo  Mo101  1  4.82966418  8.12907383  7.84904581  1
  Mo  Mo102  1  8.12121970  8.03557891  4.78862611  1
  Mo  Mo103  1  6.42313900  6.46315435  6.34584881  1
  Mo  Mo104  1  7.98637889  11.20668127  4.74239497  1
  Mo  Mo105  1  8.08409380  7.98890095  7.94751535  1
  Mo  Mo106  1  6.34962197  6.40068870  -0.02032025  1
  Mo  Mo107  1  6.40703357  6.45120932  12.89894337  1
  Mo  Mo108  1  7.92830202  8.19797372  11.16587157  1
  Mo  Mo109  1  4.76505379  11.22673860  14.38536968  1
  Mo  Mo110  1  6.36877571  9.60670272  9.52123073  1
  Mo  Mo111  1  8.01834153  11.20846856  11.16418358  1
  Mo  Mo112  1  7.94269961  11.15554503  7.92273165  1
  Mo  Mo113  1  7.93141985  11.18841124  14.42786737  1
  Mo  Mo114  1  6.34271113  9.76545345  12.79001821  1
  Mo  Mo115  1  4.95172590  8.27365535  11.42244643  1
  Mo  Mo116  1  7.97267637  8.02404099  14.27306853  1
  Mo  Mo117  1  6.37588514  6.42869945  9.78595759  1
  Mo  Mo118  1  4.74011122  11.31272692  11.11682050  1
  Mo  Mo119  1  4.77480443  8.00881927  14.37047562  1
  Mo  Mo120  1  4.86010763  11.19436886  7.98022269  1
