# generated using pymatgen
data_Mo
_symmetry_space_group_name_H-M   'P 1'
_cell_length_a   9.50240465
_cell_length_b   9.50240465
_cell_length_c   9.50240465
_cell_angle_alpha   90.00000000
_cell_angle_beta   90.00000000
_cell_angle_gamma   90.00000000
_symmetry_Int_Tables_number   1
_chemical_formula_structural   Mo
_chemical_formula_sum   Mo54
_cell_volume   858.02622273
_cell_formula_units_Z   54
loop_
 _symmetry_equiv_pos_site_id
 _symmetry_equiv_pos_as_xyz
  1  'x, y, z'
loop_
 _atom_site_type_symbol
 _atom_site_label
 _atom_site_symmetry_multiplicity
 _atom_site_fract_x
 _atom_site_fract_y
 _atom_site_fract_z
 _atom_site_occupancy
  Mo  Mo0  1  -0.05227504  0.12322544  -0.04273739  1
  Mo  Mo1  1  1.40862971  1.60121972  1.60781282  1
  Mo  Mo2  1  -0.00101197  -0.04119635  3.25291042  1
  Mo  Mo3  1  0.06423526  3.14488883  -0.07667606  1
  Mo  Mo4  1  -0.04345776  3.06890931  3.13083878  1
  Mo  Mo5  1  3.28900367  0.01395573  -0.13528267  1
  Mo  Mo6  1  3.10280817  0.08713417  3.06803553  1
  Mo  Mo7  1  3.12129666  3.08444877  0.06048573  1
  Mo  Mo8  1  3.15893889  3.16059709  3.07295057  1
  Mo  Mo9  1  4.71513886  1.51634349  1.64078825  1
  Mo  Mo10  1  6.47583415  0.04645177  -0.01393229  1
  Mo  Mo11  1  7.82287200  1.56439170  1.69824950  1
  Mo  Mo12  1  6.25786468  -0.10579741  3.21234896  1
  Mo  Mo13  1  6.40263486  3.24378533  0.14832688  1
  Mo  Mo14  1  6.26654295  3.21987542  3.21609233  1
  Mo  Mo15  1  1.60479430  1.71420600  4.56692319  1
  Mo  Mo16  1  -0.10599302  0.06221096  6.16077533  1
  Mo  Mo17  1  1.61115902  1.61816915  7.86073268  1
  Mo  Mo18  1  -0.02396373  3.22960620  6.47701575  1
  Mo  Mo19  1  3.05099674  0.00705847  6.20095948  1
  Mo  Mo20  1  3.14955564  3.22982464  6.34662330  1
  Mo  Mo21  1  4.77392072  1.47860197  4.81668650  1
  Mo  Mo22  1  4.84860942  1.46057023  7.93621573  1
  Mo  Mo23  1  7.84495491  1.58351566  4.74025023  1
  Mo  Mo24  1  6.29314372  0.04736080  6.26402089  1
  Mo  Mo25  1  7.81156245  1.62200189  8.06390740  1
  Mo  Mo26  1  6.34460763  3.21932930  6.37066229  1
  Mo  Mo27  1  1.70118860  4.72222843  1.54756142  1
  Mo  Mo28  1  0.11243519  6.27920289  0.00730285  1
  Mo  Mo29  1  1.44395840  7.95099063  1.58471712  1
  Mo  Mo30  1  0.04561194  6.26133996  3.22185136  1
  Mo  Mo31  1  3.26996908  6.42263260  0.14697350  1
  Mo  Mo32  1  3.22771962  6.31418405  3.24929613  1
  Mo  Mo33  1  4.71322249  4.64923765  1.67144021  1
  Mo  Mo34  1  4.76044656  7.82722106  1.68117099  1
  Mo  Mo35  1  7.83640573  4.78667995  1.51577752  1
  Mo  Mo36  1  6.39839502  6.34059617  0.11753789  1
  Mo  Mo37  1  8.04694804  7.85869716  1.56752938  1
  Mo  Mo38  1  6.33976210  6.17784391  3.17699048  1
  Mo  Mo39  1  1.59035700  4.89641932  4.74580075  1
  Mo  Mo40  1  1.63645905  4.80635003  7.79464281  1
  Mo  Mo41  1  1.65058854  7.89792809  4.65830316  1
  Mo  Mo42  1  0.10974731  6.32507657  6.28234057  1
  Mo  Mo43  1  1.52395932  8.04526004  7.92440971  1
  Mo  Mo44  1  3.18965042  6.46070180  6.33412222  1
  Mo  Mo45  1  4.71561547  4.70207181  4.67023826  1
  Mo  Mo46  1  4.85172724  4.78144718  7.92035853  1
  Mo  Mo47  1  4.79531850  7.85051536  4.73127408  1
  Mo  Mo48  1  4.69265877  7.93603700  7.89068958  1
  Mo  Mo49  1  7.91951453  4.66609771  4.81986390  1
  Mo  Mo50  1  7.87560687  4.73622884  8.00227581  1
  Mo  Mo51  1  7.90054944  7.93145956  4.79264750  1
  Mo  Mo52  1  6.31178115  6.34906592  6.34157918  1
  Mo  Mo53  1  7.95211265  7.82790619  7.76243194  1
