# generated using pymatgen
data_Mo
_symmetry_space_group_name_H-M   'P 1'
_cell_length_a   9.58283252
_cell_length_b   9.58283252
_cell_length_c   9.58283252
_cell_angle_alpha   90.00000000
_cell_angle_beta   90.00000000
_cell_angle_gamma   90.00000000
_symmetry_Int_Tables_number   1
_chemical_formula_structural   Mo
_chemical_formula_sum   Mo54
_cell_volume   879.99801873
_cell_formula_units_Z   54
loop_
 _symmetry_equiv_pos_site_id
 _symmetry_equiv_pos_as_xyz
  1  'x, y, z'
loop_
 _atom_site_type_symbol
 _atom_site_label
 _atom_site_symmetry_multiplicity
 _atom_site_fract_x
 _atom_site_fract_y
 _atom_site_fract_z
 _atom_site_occupancy
  Mo  Mo0  1  0.01598410  -0.11047911  0.04667259  1
  Mo  Mo1  1  1.56002278  1.48118360  1.57994109  1
  Mo  Mo2  1  -0.07124927  0.01693910  3.14788750  1
  Mo  Mo3  1  -0.02122581  3.12629113  0.01111076  1
  Mo  Mo4  1  0.02519378  3.24157108  3.08080470  1
  Mo  Mo5  1  3.28004738  -0.21774408  0.05771902  1
  Mo  Mo6  1  3.21986549  0.01512590  3.14852298  1
  Mo  Mo7  1  3.32135355  3.31453208  -0.13236244  1
  Mo  Mo8  1  3.13448286  3.22073927  3.17991964  1
  Mo  Mo9  1  4.92772662  1.80619166  1.53620223  1
  Mo  Mo10  1  6.51326787  0.02324187  0.04765570  1
  Mo  Mo11  1  7.98892081  1.51082276  1.56987271  1
  Mo  Mo12  1  6.32922704  -0.03515542  3.13706449  1
  Mo  Mo13  1  6.53663167  3.24612866  -0.14929003  1
  Mo  Mo14  1  6.42793489  3.17121159  3.20836728  1
  Mo  Mo15  1  1.65708235  1.55950645  4.77184548  1
  Mo  Mo16  1  0.01211423  0.06994455  6.40969464  1
  Mo  Mo17  1  1.74115430  1.67100332  8.04225145  1
  Mo  Mo18  1  0.08207158  3.15461961  6.33924578  1
  Mo  Mo19  1  3.21862432  -0.04003799  6.37034456  1
  Mo  Mo20  1  3.18349421  3.24232572  6.26842953  1
  Mo  Mo21  1  4.80514858  1.58609730  4.85010875  1
  Mo  Mo22  1  4.75428043  1.55784825  7.90513681  1
  Mo  Mo23  1  7.96159519  1.62268702  4.82709248  1
  Mo  Mo24  1  6.32720145  0.15504906  6.37769229  1
  Mo  Mo25  1  8.03190504  1.58678242  8.06407620  1
  Mo  Mo26  1  6.38988555  3.17616634  6.38562585  1
  Mo  Mo27  1  1.62518922  4.84886758  1.68899533  1
  Mo  Mo28  1  -0.01278068  6.33781595  -0.03879295  1
  Mo  Mo29  1  1.63615124  7.92054719  1.47899914  1
  Mo  Mo30  1  0.02757286  6.60172860  3.33147158  1
  Mo  Mo31  1  3.15064787  6.36567775  -0.02002495  1
  Mo  Mo32  1  3.12098885  6.34674245  3.16262268  1
  Mo  Mo33  1  4.80455281  4.80188181  1.59917427  1
  Mo  Mo34  1  4.73231667  7.95967883  1.59837992  1
  Mo  Mo35  1  8.06201089  4.71013446  1.74209759  1
  Mo  Mo36  1  6.47523839  6.48338047  0.03144293  1
  Mo  Mo37  1  8.00594968  7.84530244  1.66084558  1
  Mo  Mo38  1  6.29228980  6.46214156  3.24143207  1
  Mo  Mo39  1  1.57687291  4.74996115  4.81042107  1
  Mo  Mo40  1  1.56494774  4.84556110  7.89659755  1
  Mo  Mo41  1  1.63995419  8.06136548  4.76311756  1
  Mo  Mo42  1  -0.06193810  6.42160988  6.41005210  1
  Mo  Mo43  1  1.52611399  7.92004079  8.10947326  1
  Mo  Mo44  1  3.12116757  6.34949288  6.40694420  1
  Mo  Mo45  1  4.84162907  4.81055015  4.75135126  1
  Mo  Mo46  1  4.75700107  4.81618010  7.98907968  1
  Mo  Mo47  1  4.64940645  7.94616496  4.90822534  1
  Mo  Mo48  1  4.72954637  7.95596524  7.90621911  1
  Mo  Mo49  1  7.91334840  4.87212216  4.91342833  1
  Mo  Mo50  1  7.97752190  4.72402564  7.92611756  1
  Mo  Mo51  1  7.88156449  8.01037818  4.67643419  1
  Mo  Mo52  1  6.31996294  6.36776292  6.54411841  1
  Mo  Mo53  1  7.90372684  7.92604806  8.04389972  1
