# generated using pymatgen
data_Mo
_symmetry_space_group_name_H-M   'P 1'
_cell_length_a   9.58283252
_cell_length_b   9.58283252
_cell_length_c   9.58283252
_cell_angle_alpha   90.00000000
_cell_angle_beta   90.00000000
_cell_angle_gamma   90.00000000
_symmetry_Int_Tables_number   1
_chemical_formula_structural   Mo
_chemical_formula_sum   Mo54
_cell_volume   879.99801873
_cell_formula_units_Z   54
loop_
 _symmetry_equiv_pos_site_id
 _symmetry_equiv_pos_as_xyz
  1  'x, y, z'
loop_
 _atom_site_type_symbol
 _atom_site_label
 _atom_site_symmetry_multiplicity
 _atom_site_fract_x
 _atom_site_fract_y
 _atom_site_fract_z
 _atom_site_occupancy
  Mo  Mo0  1  0.01433006  0.01604199  0.05045658  1
  Mo  Mo1  1  1.61334348  1.57471824  1.58744769  1
  Mo  Mo2  1  -0.02309303  0.12774926  3.41120440  1
  Mo  Mo3  1  0.10747349  3.16663415  -0.00665011  1
  Mo  Mo4  1  0.04136505  3.22885156  3.11944979  1
  Mo  Mo5  1  3.20043372  0.04889479  0.05116603  1
  Mo  Mo6  1  3.20379977  0.03202856  3.30479137  1
  Mo  Mo7  1  3.17105272  3.15324936  -0.13050366  1
  Mo  Mo8  1  3.26874776  3.20008619  2.95342084  1
  Mo  Mo9  1  4.88677791  1.61185408  1.58209576  1
  Mo  Mo10  1  6.41149185  -0.14869923  -0.01745623  1
  Mo  Mo11  1  7.95874547  1.53591427  1.51155754  1
  Mo  Mo12  1  6.36272873  -0.03943190  3.19269874  1
  Mo  Mo13  1  6.37075166  3.31085821  0.09881925  1
  Mo  Mo14  1  6.32909796  3.37011668  3.17058604  1
  Mo  Mo15  1  1.62670841  1.63773001  4.86343396  1
  Mo  Mo16  1  0.03059784  0.02315380  6.20181340  1
  Mo  Mo17  1  1.61204273  1.59926364  7.87603383  1
  Mo  Mo18  1  -0.06779951  3.16788525  6.26011865  1
  Mo  Mo19  1  3.35498432  -0.06106065  6.34368420  1
  Mo  Mo20  1  3.21114750  3.21842573  6.44712835  1
  Mo  Mo21  1  4.77894498  1.47528556  4.66137134  1
  Mo  Mo22  1  4.81482971  1.56425269  8.10492561  1
  Mo  Mo23  1  7.83522413  1.68571864  4.82530519  1
  Mo  Mo24  1  6.41176988  -0.11300315  6.40811587  1
  Mo  Mo25  1  8.08446119  1.57187844  7.89075909  1
  Mo  Mo26  1  6.48651815  3.19544917  6.42595894  1
  Mo  Mo27  1  1.67274096  4.77015749  1.51840880  1
  Mo  Mo28  1  0.11123572  6.47285534  -0.00617210  1
  Mo  Mo29  1  1.57141176  7.99770830  1.63614131  1
  Mo  Mo30  1  0.00769542  6.37758306  3.07859045  1
  Mo  Mo31  1  3.06105518  6.37884409  0.04194344  1
  Mo  Mo32  1  3.23728160  6.37324393  3.27708843  1
  Mo  Mo33  1  4.68799197  4.71590342  1.51582716  1
  Mo  Mo34  1  4.81885110  7.96996565  1.73097670  1
  Mo  Mo35  1  8.02074444  4.81486943  1.58465754  1
  Mo  Mo36  1  6.33106398  6.44112109  0.10464759  1
  Mo  Mo37  1  7.87458415  7.95187434  1.64452170  1
  Mo  Mo38  1  6.28587543  6.42490643  3.21029358  1
  Mo  Mo39  1  1.56866133  4.77358312  4.83214653  1
  Mo  Mo40  1  1.57632680  4.79169428  8.01748760  1
  Mo  Mo41  1  1.61249949  7.81861230  4.70307468  1
  Mo  Mo42  1  0.07216356  6.34081462  6.33607831  1
  Mo  Mo43  1  1.57382460  8.11533159  7.87216138  1
  Mo  Mo44  1  3.12182291  6.47173333  6.38936922  1
  Mo  Mo45  1  4.82057881  4.80447338  4.90135422  1
  Mo  Mo46  1  4.74427162  4.82632792  7.97833611  1
  Mo  Mo47  1  4.84014960  7.93106239  4.89974566  1
  Mo  Mo48  1  4.66706086  7.97072028  8.17982283  1
  Mo  Mo49  1  7.96358107  4.91891927  4.64483894  1
  Mo  Mo50  1  8.00008142  4.63316200  7.96647051  1
  Mo  Mo51  1  7.93888673  8.11717845  4.80421522  1
  Mo  Mo52  1  6.27169629  6.36466496  6.48822601  1
  Mo  Mo53  1  8.06512871  7.89260595  8.07573327  1
