# generated using pymatgen
data_Mo
_symmetry_space_group_name_H-M   'P 1'
_cell_length_a   9.65134516
_cell_length_b   9.65134516
_cell_length_c   9.65134516
_cell_angle_alpha   90.00000000
_cell_angle_beta   90.00000000
_cell_angle_gamma   90.00000000
_symmetry_Int_Tables_number   1
_chemical_formula_structural   Mo
_chemical_formula_sum   Mo54
_cell_volume   899.00797074
_cell_formula_units_Z   54
loop_
 _symmetry_equiv_pos_site_id
 _symmetry_equiv_pos_as_xyz
  1  'x, y, z'
loop_
 _atom_site_type_symbol
 _atom_site_label
 _atom_site_symmetry_multiplicity
 _atom_site_fract_x
 _atom_site_fract_y
 _atom_site_fract_z
 _atom_site_occupancy
  Mo  Mo0  1  0.00585056  -0.03340289  -0.10075031  1
  Mo  Mo1  1  1.59314715  1.72786881  1.69046488  1
  Mo  Mo2  1  -0.06647831  0.01500407  3.18919367  1
  Mo  Mo3  1  0.03969850  3.20742399  0.04020441  1
  Mo  Mo4  1  -0.20187496  3.18467581  3.28626317  1
  Mo  Mo5  1  3.49177129  -0.10802457  0.02833514  1
  Mo  Mo6  1  3.29639112  0.16532198  3.08084441  1
  Mo  Mo7  1  3.18067427  3.22324147  0.02524214  1
  Mo  Mo8  1  3.08752688  3.37747434  3.24724075  1
  Mo  Mo9  1  4.92590954  1.55481979  1.65427233  1
  Mo  Mo10  1  6.54113960  0.02815720  -0.03084290  1
  Mo  Mo11  1  8.05678804  1.59348475  1.51434769  1
  Mo  Mo12  1  6.37140700  0.06801845  3.22603162  1
  Mo  Mo13  1  6.33956352  3.19203347  -0.01829357  1
  Mo  Mo14  1  6.40505762  3.29213142  3.19969894  1
  Mo  Mo15  1  1.58421072  1.61140725  4.81596166  1
  Mo  Mo16  1  -0.00191297  0.04378424  6.45755419  1
  Mo  Mo17  1  1.66917631  1.59192584  8.15033261  1
  Mo  Mo18  1  0.02963559  3.09605620  6.35789313  1
  Mo  Mo19  1  3.28528016  0.00774876  6.44828016  1
  Mo  Mo20  1  3.21465257  3.12956782  6.42591922  1
  Mo  Mo21  1  4.72500865  1.43300631  4.80332157  1
  Mo  Mo22  1  4.75501520  1.59954166  8.03861730  1
  Mo  Mo23  1  7.93718881  1.65080698  4.83331819  1
  Mo  Mo24  1  6.53545008  0.05361719  6.52465685  1
  Mo  Mo25  1  7.95763338  1.66721030  8.02613608  1
  Mo  Mo26  1  6.40834424  3.32537495  6.42342695  1
  Mo  Mo27  1  1.63207027  4.78210251  1.70764268  1
  Mo  Mo28  1  0.04906517  6.33900747  -0.00317236  1
  Mo  Mo29  1  1.57415227  8.08098591  1.64561393  1
  Mo  Mo30  1  -0.08629891  6.47507952  3.07250375  1
  Mo  Mo31  1  3.15460968  6.29332245  0.04229305  1
  Mo  Mo32  1  3.10352309  6.49839368  3.25542255  1
  Mo  Mo33  1  4.80786922  4.88825738  1.69575723  1
  Mo  Mo34  1  4.92303996  8.03347388  1.64363798  1
  Mo  Mo35  1  7.98423415  4.77642292  1.53349151  1
  Mo  Mo36  1  6.52616612  6.58945591  0.03445242  1
  Mo  Mo37  1  7.95209279  8.21338409  1.45931913  1
  Mo  Mo38  1  6.47650935  6.58562317  2.99324753  1
  Mo  Mo39  1  1.72820640  4.82274342  5.00821407  1
  Mo  Mo40  1  1.65616884  4.56481817  8.04279756  1
  Mo  Mo41  1  1.62521900  7.93621573  4.95351318  1
  Mo  Mo42  1  -0.18568215  6.37109919  6.39253669  1
  Mo  Mo43  1  1.66626701  8.05245884  7.99298192  1
  Mo  Mo44  1  3.41111503  6.31874163  6.50451017  1
  Mo  Mo45  1  4.92575067  4.74473830  4.79887322  1
  Mo  Mo46  1  4.72060994  4.81158281  8.07683543  1
  Mo  Mo47  1  4.90598130  8.07435309  4.79841647  1
  Mo  Mo48  1  4.97715501  8.04405859  8.08857194  1
  Mo  Mo49  1  7.95726599  4.73508696  4.87208244  1
  Mo  Mo50  1  8.06324213  4.78234082  8.09467851  1
  Mo  Mo51  1  8.07446231  8.09113372  4.65703220  1
  Mo  Mo52  1  6.34680202  6.49749011  6.49120482  1
  Mo  Mo53  1  8.01938411  8.05461351  7.96513005  1
