# generated using pymatgen
data_Mo
_symmetry_space_group_name_H-M   'P 1'
_cell_length_a   9.65134516
_cell_length_b   9.65134516
_cell_length_c   9.65134516
_cell_angle_alpha   90.00000000
_cell_angle_beta   90.00000000
_cell_angle_gamma   90.00000000
_symmetry_Int_Tables_number   1
_chemical_formula_structural   Mo
_chemical_formula_sum   Mo54
_cell_volume   899.00797074
_cell_formula_units_Z   54
loop_
 _symmetry_equiv_pos_site_id
 _symmetry_equiv_pos_as_xyz
  1  'x, y, z'
loop_
 _atom_site_type_symbol
 _atom_site_label
 _atom_site_symmetry_multiplicity
 _atom_site_fract_x
 _atom_site_fract_y
 _atom_site_fract_z
 _atom_site_occupancy
  Mo  Mo0  1  -0.05640278  -0.02752867  -0.03250011  1
  Mo  Mo1  1  1.72715389  1.45710488  1.59067474  1
  Mo  Mo2  1  -0.14388547  0.17681324  3.00201517  1
  Mo  Mo3  1  0.06627287  3.12057181  -0.02284589  1
  Mo  Mo4  1  0.15097405  3.12574501  3.37049399  1
  Mo  Mo5  1  3.22319183  -0.19080471  -0.03410112  1
  Mo  Mo6  1  3.42561191  -0.04660130  3.34347618  1
  Mo  Mo7  1  3.15196847  3.05546495  0.01146524  1
  Mo  Mo8  1  3.39156411  3.30897163  3.28657098  1
  Mo  Mo9  1  4.81807661  1.69219259  1.58277096  1
  Mo  Mo10  1  6.36502241  -0.08384249  -0.15010622  1
  Mo  Mo11  1  8.09231532  1.60539999  1.47108543  1
  Mo  Mo12  1  6.37703695  0.03243259  3.15419265  1
  Mo  Mo13  1  6.41281246  3.30801841  0.13815623  1
  Mo  Mo14  1  6.48195065  3.29162503  3.19780243  1
  Mo  Mo15  1  1.67856950  1.64971475  4.85899554  1
  Mo  Mo16  1  -0.04273778  -0.02592746  6.43143002  1
  Mo  Mo17  1  1.46778888  1.47355785  7.99688417  1
  Mo  Mo18  1  0.02366824  3.30913050  6.41541395  1
  Mo  Mo19  1  3.32785729  -0.01937428  6.42916613  1
  Mo  Mo20  1  3.19354273  3.23128426  6.40763926  1
  Mo  Mo21  1  4.85661249  1.60850788  4.87805992  1
  Mo  Mo22  1  4.75192717  1.53474261  7.93458731  1
  Mo  Mo23  1  8.06494005  1.74736015  4.74400353  1
  Mo  Mo24  1  6.47824699  0.04728941  6.31577275  1
  Mo  Mo25  1  7.93993924  1.60097149  7.99496780  1
  Mo  Mo26  1  6.31099673  3.23482904  6.48617063  1
  Mo  Mo27  1  1.51212351  4.67235322  1.75585969  1
  Mo  Mo28  1  -0.06321194  6.43932387  -0.00595269  1
  Mo  Mo29  1  1.54873309  8.05091978  1.48634687  1
  Mo  Mo30  1  0.01019766  6.31386631  3.29242930  1
  Mo  Mo31  1  3.16961296  6.44759503  -0.10737121  1
  Mo  Mo32  1  3.29248888  6.47291492  3.23945613  1
  Mo  Mo33  1  4.77983862  4.87473358  1.65302123  1
  Mo  Mo34  1  4.90194998  8.00475815  1.50662264  1
  Mo  Mo35  1  8.09916658  4.74611849  1.73644778  1
  Mo  Mo36  1  6.48987428  6.50022068  -0.05645521  1
  Mo  Mo37  1  8.15839526  7.94433795  1.52318482  1
  Mo  Mo38  1  6.48226838  6.54502199  3.26213480  1
  Mo  Mo39  1  1.46245681  5.00779704  4.97071085  1
  Mo  Mo40  1  1.53773135  4.95151738  8.13690811  1
  Mo  Mo41  1  1.52899350  8.07540560  4.88186287  1
  Mo  Mo42  1  -0.04195992  6.42494615  6.58377631  1
  Mo  Mo43  1  1.58641504  8.10364472  8.05301488  1
  Mo  Mo44  1  3.10718703  6.54944056  6.50860107  1
  Mo  Mo45  1  4.85127049  4.78193372  4.88786021  1
  Mo  Mo46  1  4.77903434  4.86672058  7.98018297  1
  Mo  Mo47  1  4.88255792  8.03032628  4.81698438  1
  Mo  Mo48  1  4.86359283  7.99770830  7.91107457  1
  Mo  Mo49  1  8.00537377  4.86672058  4.93493534  1
  Mo  Mo50  1  8.11560961  4.80387762  8.07463111  1
  Mo  Mo51  1  8.13645135  7.99376634  4.82895920  1
  Mo  Mo52  1  6.37950936  6.41632746  6.44903479  1
  Mo  Mo53  1  8.04456499  8.05534828  8.04874525  1
