# generated using pymatgen
data_Mo
_symmetry_space_group_name_H-M   'P 1'
_cell_length_a   9.52000000
_cell_length_b   9.52000000
_cell_length_c   9.52000000
_cell_angle_alpha   90.00000000
_cell_angle_beta   90.00000000
_cell_angle_gamma   90.00000000
_symmetry_Int_Tables_number   1
_chemical_formula_structural   Mo
_chemical_formula_sum   Mo54
_cell_volume   862.80140800
_cell_formula_units_Z   54
loop_
 _symmetry_equiv_pos_site_id
 _symmetry_equiv_pos_as_xyz
  1  'x, y, z'
loop_
 _atom_site_type_symbol
 _atom_site_label
 _atom_site_symmetry_multiplicity
 _atom_site_fract_x
 _atom_site_fract_y
 _atom_site_fract_z
 _atom_site_occupancy
  Mo  Mo0  1  -0.00677368  -0.10503200  -0.01412590  1
  Mo  Mo1  1  1.74279000  1.50243000  1.46059000  1
  Mo  Mo2  1  -0.01577550  -0.02801320  3.16236000  1
  Mo  Mo3  1  0.11249200  3.10892000  -0.00779367  1
  Mo  Mo4  1  -0.10896000  3.10480000  2.92294000  1
  Mo  Mo5  1  3.11553000  -0.11853400  -0.02993910  1
  Mo  Mo6  1  3.12458000  -0.01198680  3.26277000  1
  Mo  Mo7  1  3.32608000  3.19549000  0.02143640  1
  Mo  Mo8  1  3.04269000  3.04372000  3.09772000  1
  Mo  Mo9  1  1.69417000  1.68177000  4.87631000  1
  Mo  Mo10  1  -0.10665500  -0.09754440  6.36274000  1
  Mo  Mo11  1  1.33417000  1.50044000  7.76968000  1
  Mo  Mo12  1  -0.03709570  3.43995000  6.34841000  1
  Mo  Mo13  1  3.16746000  0.05627730  6.39118000  1
  Mo  Mo14  1  3.20441000  3.22410000  6.30372000  1
  Mo  Mo15  1  1.49522000  4.83615000  1.43127000  1
  Mo  Mo16  1  0.08776880  6.32404000  0.07497460  1
  Mo  Mo17  1  1.70141000  7.89902000  1.68131000  1
  Mo  Mo18  1  0.04591820  6.32358000  3.23129000  1
  Mo  Mo19  1  3.29983000  6.21160000  0.10622000  1
  Mo  Mo20  1  3.16419000  6.40317000  3.07576000  1
  Mo  Mo21  1  1.59558000  4.90847000  4.76025000  1
  Mo  Mo22  1  1.63604000  4.93825000  8.02858000  1
  Mo  Mo23  1  1.60356000  8.03686000  4.68433000  1
  Mo  Mo24  1  -0.18678100  6.53226000  6.25603000  1
  Mo  Mo25  1  1.63278000  8.04196000  8.08639000  1
  Mo  Mo26  1  3.03573000  6.46527000  6.27537000  1
  Mo  Mo27  1  4.72533000  1.59523000  1.71204000  1
  Mo  Mo28  1  6.29038000  -0.07326920  -0.03088100  1
  Mo  Mo29  1  7.83312000  1.42076000  1.76409000  1
  Mo  Mo30  1  6.34928000  0.17996200  3.19703000  1
  Mo  Mo31  1  6.36773000  3.04186000  0.06434070  1
  Mo  Mo32  1  6.11906000  2.95688000  3.14760000  1
  Mo  Mo33  1  4.69101000  1.45193000  4.92948000  1
  Mo  Mo34  1  4.98439000  1.57419000  7.91503000  1
  Mo  Mo35  1  8.09001000  1.58506000  4.73190000  1
  Mo  Mo36  1  6.58339000  0.07886940  6.18656000  1
  Mo  Mo37  1  7.89030000  1.51587000  8.22781000  1
  Mo  Mo38  1  6.43104000  3.17770000  6.16793000  1
  Mo  Mo39  1  4.81559000  4.72729000  1.62473000  1
  Mo  Mo40  1  4.87341000  8.10041000  1.60917000  1
  Mo  Mo41  1  7.93384000  4.62984000  1.56568000  1
  Mo  Mo42  1  6.43612000  6.40717000  0.31843800  1
  Mo  Mo43  1  8.12632000  8.13176000  1.74890000  1
  Mo  Mo44  1  6.39374000  6.44972000  3.27050000  1
  Mo  Mo45  1  4.73912000  4.77271000  4.63619000  1
  Mo  Mo46  1  4.91598000  4.81290000  7.98497000  1
  Mo  Mo47  1  4.97452000  8.07573000  4.76603000  1
  Mo  Mo48  1  4.67295000  8.01959000  7.90228000  1
  Mo  Mo49  1  8.04537000  4.74043000  4.54893000  1
  Mo  Mo50  1  7.93168000  4.78621000  8.06123000  1
  Mo  Mo51  1  7.89675000  7.96085000  4.76538000  1
  Mo  Mo52  1  6.20629000  6.23074000  6.19180000  1
  Mo  Mo53  1  7.63291000  7.88219000  8.02307000  1
