# generated using pymatgen
data_Mo
_symmetry_space_group_name_H-M   'P 1'
_cell_length_a   9.52000000
_cell_length_b   9.52000000
_cell_length_c   9.52000000
_cell_angle_alpha   90.00000000
_cell_angle_beta   90.00000000
_cell_angle_gamma   90.00000000
_symmetry_Int_Tables_number   1
_chemical_formula_structural   Mo
_chemical_formula_sum   Mo54
_cell_volume   862.80140800
_cell_formula_units_Z   54
loop_
 _symmetry_equiv_pos_site_id
 _symmetry_equiv_pos_as_xyz
  1  'x, y, z'
loop_
 _atom_site_type_symbol
 _atom_site_label
 _atom_site_symmetry_multiplicity
 _atom_site_fract_x
 _atom_site_fract_y
 _atom_site_fract_z
 _atom_site_occupancy
  Mo  Mo0  1  0.03766170  0.17329300  0.11768200  1
  Mo  Mo1  1  1.89635000  1.37845000  1.77787000  1
  Mo  Mo2  1  0.06743610  0.13656000  2.86669000  1
  Mo  Mo3  1  -0.00752967  3.23371000  0.16970000  1
  Mo  Mo4  1  -0.25165700  3.16699000  3.16622000  1
  Mo  Mo5  1  3.13484000  0.21264600  -0.03837890  1
  Mo  Mo6  1  3.17213000  -0.06398780  3.22001000  1
  Mo  Mo7  1  3.14544000  3.39916000  0.10931200  1
  Mo  Mo8  1  3.21635000  3.09620000  3.34512000  1
  Mo  Mo9  1  1.67561000  1.28363000  4.88832000  1
  Mo  Mo10  1  -0.08213950  -0.10412400  6.32419000  1
  Mo  Mo11  1  1.38633000  1.92305000  7.88807000  1
  Mo  Mo12  1  0.02971630  3.30552000  6.23333000  1
  Mo  Mo13  1  3.18367000  -0.10476400  6.22877000  1
  Mo  Mo14  1  2.91903000  3.30138000  6.18760000  1
  Mo  Mo15  1  1.47080000  4.61955000  1.77157000  1
  Mo  Mo16  1  0.02049130  6.51328000  0.20520900  1
  Mo  Mo17  1  1.64304000  8.00821000  1.54418000  1
  Mo  Mo18  1  -0.06104320  6.32199000  3.31800000  1
  Mo  Mo19  1  3.11308000  6.40290000  0.27339500  1
  Mo  Mo20  1  3.11275000  6.37903000  3.14093000  1
  Mo  Mo21  1  1.53456000  4.78831000  4.59437000  1
  Mo  Mo22  1  1.61854000  4.84952000  8.14416000  1
  Mo  Mo23  1  1.54992000  7.84226000  4.60236000  1
  Mo  Mo24  1  0.17648800  6.29286000  6.49736000  1
  Mo  Mo25  1  1.82062000  7.94479000  7.78774000  1
  Mo  Mo26  1  3.12981000  6.37481000  6.26122000  1
  Mo  Mo27  1  4.97491000  1.72744000  1.48706000  1
  Mo  Mo28  1  6.17546000  -0.11180200  -0.11887100  1
  Mo  Mo29  1  7.84091000  1.45658000  1.50560000  1
  Mo  Mo30  1  6.37088000  -0.05925290  3.15184000  1
  Mo  Mo31  1  6.48452000  3.21132000  -0.20811600  1
  Mo  Mo32  1  6.37233000  3.10610000  3.29326000  1
  Mo  Mo33  1  4.67176000  1.57353000  4.83978000  1
  Mo  Mo34  1  4.75223000  1.91385000  7.79185000  1
  Mo  Mo35  1  7.84386000  1.56481000  4.89770000  1
  Mo  Mo36  1  6.36450000  -0.24004500  6.29501000  1
  Mo  Mo37  1  7.94741000  1.48684000  7.97905000  1
  Mo  Mo38  1  6.45327000  3.29457000  6.36987000  1
  Mo  Mo39  1  4.72009000  4.73152000  1.60903000  1
  Mo  Mo40  1  4.75188000  7.87484000  1.76600000  1
  Mo  Mo41  1  7.98316000  4.72934000  1.46898000  1
  Mo  Mo42  1  6.31518000  6.24005000  -0.02195480  1
  Mo  Mo43  1  8.07248000  7.93619000  1.43211000  1
  Mo  Mo44  1  6.30103000  6.39872000  3.16159000  1
  Mo  Mo45  1  4.73903000  4.63270000  4.60036000  1
  Mo  Mo46  1  4.71398000  5.03095000  7.88235000  1
  Mo  Mo47  1  4.86746000  7.89646000  4.74684000  1
  Mo  Mo48  1  4.79812000  7.89536000  7.90047000  1
  Mo  Mo49  1  7.90764000  4.64111000  4.78933000  1
  Mo  Mo50  1  8.15090000  5.00821000  8.15829000  1
  Mo  Mo51  1  7.97591000  7.78331000  4.83494000  1
  Mo  Mo52  1  6.40530000  6.24624000  6.25865000  1
  Mo  Mo53  1  8.04350000  8.00585000  8.15401000  1
