# generated using pymatgen
data_Mo
_symmetry_space_group_name_H-M   'P 1'
_cell_length_a   9.52000000
_cell_length_b   9.52000000
_cell_length_c   9.52000000
_cell_angle_alpha   90.00000000
_cell_angle_beta   90.00000000
_cell_angle_gamma   90.00000000
_symmetry_Int_Tables_number   1
_chemical_formula_structural   Mo
_chemical_formula_sum   Mo54
_cell_volume   862.80140800
_cell_formula_units_Z   54
loop_
 _symmetry_equiv_pos_site_id
 _symmetry_equiv_pos_as_xyz
  1  'x, y, z'
loop_
 _atom_site_type_symbol
 _atom_site_label
 _atom_site_symmetry_multiplicity
 _atom_site_fract_x
 _atom_site_fract_y
 _atom_site_fract_z
 _atom_site_occupancy
  Mo  Mo0  1  0.10072000  0.05998160  -0.01273850  1
  Mo  Mo1  1  1.45444000  1.63363000  1.46003000  1
  Mo  Mo2  1  -0.12023600  -0.06192730  3.31685000  1
  Mo  Mo3  1  -0.13442100  3.35861000  0.05992540  1
  Mo  Mo4  1  -0.17295100  3.27525000  3.20416000  1
  Mo  Mo5  1  3.22244000  -0.07176470  -0.07835610  1
  Mo  Mo6  1  3.00971000  0.07428320  3.06527000  1
  Mo  Mo7  1  3.16134000  3.20012000  -0.15478600  1
  Mo  Mo8  1  3.21643000  3.06335000  3.12776000  1
  Mo  Mo9  1  1.61539000  1.71847000  4.69253000  1
  Mo  Mo10  1  0.04170030  -0.11536200  6.42911000  1
  Mo  Mo11  1  1.40411000  1.72373000  7.83070000  1
  Mo  Mo12  1  0.03693510  3.22138000  6.25803000  1
  Mo  Mo13  1  3.16341000  0.07749960  6.38040000  1
  Mo  Mo14  1  3.23965000  3.17376000  6.33518000  1
  Mo  Mo15  1  1.52334000  4.77162000  1.60584000  1
  Mo  Mo16  1  0.21306100  6.49846000  0.10852200  1
  Mo  Mo17  1  1.63798000  7.96203000  1.68525000  1
  Mo  Mo18  1  0.03551480  6.29728000  3.13295000  1
  Mo  Mo19  1  3.38680000  6.31413000  -0.00254082  1
  Mo  Mo20  1  3.16433000  6.47390000  3.10786000  1
  Mo  Mo21  1  1.68682000  4.78870000  4.75798000  1
  Mo  Mo22  1  1.72565000  4.89383000  7.88417000  1
  Mo  Mo23  1  1.75551000  8.11619000  4.83711000  1
  Mo  Mo24  1  0.02083470  6.47225000  6.33018000  1
  Mo  Mo25  1  1.71492000  8.01589000  7.92614000  1
  Mo  Mo26  1  3.10844000  6.32789000  6.14771000  1
  Mo  Mo27  1  4.90702000  1.48020000  1.76597000  1
  Mo  Mo28  1  6.44817000  -0.01330260  -0.11754800  1
  Mo  Mo29  1  8.08273000  1.46898000  1.65565000  1
  Mo  Mo30  1  6.41786000  0.01387190  3.15118000  1
  Mo  Mo31  1  6.38492000  3.15078000  0.16752800  1
  Mo  Mo32  1  6.33714000  3.13809000  3.30279000  1
  Mo  Mo33  1  4.73574000  1.50285000  4.83836000  1
  Mo  Mo34  1  4.51078000  1.56526000  8.01970000  1
  Mo  Mo35  1  8.07601000  1.37710000  4.76733000  1
  Mo  Mo36  1  6.21618000  -0.01276140  6.35302000  1
  Mo  Mo37  1  7.88844000  1.68672000  7.96272000  1
  Mo  Mo38  1  6.42164000  3.19869000  6.33457000  1
  Mo  Mo39  1  4.59626000  4.69317000  1.54743000  1
  Mo  Mo40  1  4.72825000  8.01453000  1.62224000  1
  Mo  Mo41  1  7.81611000  4.65239000  1.83861000  1
  Mo  Mo42  1  6.27740000  6.30303000  -0.14397700  1
  Mo  Mo43  1  7.92473000  7.82895000  1.56892000  1
  Mo  Mo44  1  6.35090000  6.39449000  3.21214000  1
  Mo  Mo45  1  4.97799000  4.66914000  4.72856000  1
  Mo  Mo46  1  4.75970000  4.79242000  8.01596000  1
  Mo  Mo47  1  4.58137000  7.82259000  4.75685000  1
  Mo  Mo48  1  4.76599000  7.89801000  7.86170000  1
  Mo  Mo49  1  7.90505000  4.87550000  4.89716000  1
  Mo  Mo50  1  8.03437000  4.79637000  7.92486000  1
  Mo  Mo51  1  8.00811000  7.90828000  4.92876000  1
  Mo  Mo52  1  6.35535000  6.22524000  6.29717000  1
  Mo  Mo53  1  7.92992000  7.95622000  7.95713000  1
