# generated using pymatgen
data_Mo
_symmetry_space_group_name_H-M   'P 1'
_cell_length_a   9.52000000
_cell_length_b   9.52000000
_cell_length_c   9.52000000
_cell_angle_alpha   90.00000000
_cell_angle_beta   90.00000000
_cell_angle_gamma   90.00000000
_symmetry_Int_Tables_number   1
_chemical_formula_structural   Mo
_chemical_formula_sum   Mo54
_cell_volume   862.80140800
_cell_formula_units_Z   54
loop_
 _symmetry_equiv_pos_site_id
 _symmetry_equiv_pos_as_xyz
  1  'x, y, z'
loop_
 _atom_site_type_symbol
 _atom_site_label
 _atom_site_symmetry_multiplicity
 _atom_site_fract_x
 _atom_site_fract_y
 _atom_site_fract_z
 _atom_site_occupancy
  Mo  Mo0  1  0.01314300  -0.06519860  -0.07457080  1
  Mo  Mo1  1  1.60222000  1.66229000  1.71067000  1
  Mo  Mo2  1  0.12739800  -0.11606600  3.16569000  1
  Mo  Mo3  1  -0.01065200  3.19728000  0.02746980  1
  Mo  Mo4  1  -0.05662010  3.03198000  3.15107000  1
  Mo  Mo5  1  3.10014000  0.06538620  0.18974200  1
  Mo  Mo6  1  3.21396000  -0.20499300  3.20238000  1
  Mo  Mo7  1  3.31901000  3.19074000  0.01703690  1
  Mo  Mo8  1  3.21045000  3.16915000  3.02761000  1
  Mo  Mo9  1  1.48733000  1.55508000  4.86019000  1
  Mo  Mo10  1  0.16304500  -0.16948200  6.45445000  1
  Mo  Mo11  1  1.56548000  1.70934000  8.00866000  1
  Mo  Mo12  1  -0.02478150  3.03425000  6.25193000  1
  Mo  Mo13  1  3.08975000  0.16595100  6.38967000  1
  Mo  Mo14  1  3.08945000  3.02457000  6.21733000  1
  Mo  Mo15  1  1.34052000  4.91113000  1.80363000  1
  Mo  Mo16  1  -0.03938820  6.35387000  -0.14945100  1
  Mo  Mo17  1  1.68970000  7.95984000  1.62787000  1
  Mo  Mo18  1  -0.21490200  6.29814000  3.25044000  1
  Mo  Mo19  1  3.32345000  6.26994000  0.16072000  1
  Mo  Mo20  1  3.37309000  6.40126000  3.18884000  1
  Mo  Mo21  1  1.55357000  4.73196000  4.85102000  1
  Mo  Mo22  1  1.64242000  4.74867000  8.04825000  1
  Mo  Mo23  1  1.65539000  7.88731000  5.05751000  1
  Mo  Mo24  1  -0.06572300  6.42311000  6.25618000  1
  Mo  Mo25  1  1.81034000  8.05258000  7.96284000  1
  Mo  Mo26  1  2.98647000  6.22211000  6.25651000  1
  Mo  Mo27  1  4.74108000  1.72474000  1.75354000  1
  Mo  Mo28  1  6.49698000  0.14504900  -0.06730550  1
  Mo  Mo29  1  7.87676000  1.58231000  1.45949000  1
  Mo  Mo30  1  6.39435000  0.07330990  3.31493000  1
  Mo  Mo31  1  6.35694000  3.08218000  -0.05269700  1
  Mo  Mo32  1  6.34370000  3.30213000  3.18959000  1
  Mo  Mo33  1  4.70646000  1.63136000  4.70148000  1
  Mo  Mo34  1  4.70533000  1.56130000  7.87109000  1
  Mo  Mo35  1  7.97305000  1.50689000  4.78425000  1
  Mo  Mo36  1  6.36846000  0.03160330  6.42907000  1
  Mo  Mo37  1  8.13609000  1.65328000  7.90888000  1
  Mo  Mo38  1  6.36419000  3.24890000  6.42064000  1
  Mo  Mo39  1  4.59634000  4.71507000  1.51488000  1
  Mo  Mo40  1  4.97016000  8.03575000  1.37907000  1
  Mo  Mo41  1  7.81226000  4.66675000  1.60766000  1
  Mo  Mo42  1  6.49440000  6.36954000  -0.15596900  1
  Mo  Mo43  1  7.77826000  7.83627000  1.62729000  1
  Mo  Mo44  1  6.24261000  6.42954000  3.22964000  1
  Mo  Mo45  1  4.72124000  4.80468000  4.75895000  1
  Mo  Mo46  1  4.74808000  4.68256000  7.84578000  1
  Mo  Mo47  1  4.75204000  8.18454000  4.73350000  1
  Mo  Mo48  1  4.70738000  8.01339000  7.85460000  1
  Mo  Mo49  1  7.91746000  4.81704000  4.58518000  1
  Mo  Mo50  1  8.18632000  4.72457000  7.87297000  1
  Mo  Mo51  1  7.94531000  7.99426000  4.86063000  1
  Mo  Mo52  1  6.31619000  6.47435000  6.30136000  1
  Mo  Mo53  1  8.05430000  7.84842000  8.00784000  1
