# generated using pymatgen
data_Mo
_symmetry_space_group_name_H-M   'P 1'
_cell_length_a   9.52000000
_cell_length_b   9.52000000
_cell_length_c   9.52000000
_cell_angle_alpha   90.00000000
_cell_angle_beta   90.00000000
_cell_angle_gamma   90.00000000
_symmetry_Int_Tables_number   1
_chemical_formula_structural   Mo
_chemical_formula_sum   Mo54
_cell_volume   862.80140800
_cell_formula_units_Z   54
loop_
 _symmetry_equiv_pos_site_id
 _symmetry_equiv_pos_as_xyz
  1  'x, y, z'
loop_
 _atom_site_type_symbol
 _atom_site_label
 _atom_site_symmetry_multiplicity
 _atom_site_fract_x
 _atom_site_fract_y
 _atom_site_fract_z
 _atom_site_occupancy
  Mo  Mo0  1  -0.08463350  0.02666700  0.05724650  1
  Mo  Mo1  1  1.57503000  1.66075000  1.73072000  1
  Mo  Mo2  1  -0.11396800  0.20707500  3.13131000  1
  Mo  Mo3  1  0.01745810  3.40192000  0.10392300  1
  Mo  Mo4  1  0.08322730  3.05515000  3.25952000  1
  Mo  Mo5  1  3.15633000  -0.10715800  0.12674800  1
  Mo  Mo6  1  3.12679000  0.14018800  3.16997000  1
  Mo  Mo7  1  3.04990000  3.13163000  -0.19991700  1
  Mo  Mo8  1  3.19166000  3.17897000  3.23318000  1
  Mo  Mo9  1  1.47865000  1.54367000  4.84496000  1
  Mo  Mo10  1  0.01320950  0.03291130  6.29970000  1
  Mo  Mo11  1  1.54507000  1.53111000  7.92042000  1
  Mo  Mo12  1  -0.16368100  2.88067000  6.40413000  1
  Mo  Mo13  1  3.12806000  0.09308240  6.34100000  1
  Mo  Mo14  1  3.24434000  3.06150000  6.46024000  1
  Mo  Mo15  1  1.83378000  4.67949000  1.62840000  1
  Mo  Mo16  1  0.07510040  6.32408000  0.09093170  1
  Mo  Mo17  1  1.77092000  7.96294000  1.62334000  1
  Mo  Mo18  1  0.18906600  6.38637000  3.17231000  1
  Mo  Mo19  1  3.27498000  6.23747000  0.01930950  1
  Mo  Mo20  1  3.30179000  6.49727000  3.12714000  1
  Mo  Mo21  1  1.78372000  4.55124000  4.76808000  1
  Mo  Mo22  1  1.32361000  4.70738000  7.89755000  1
  Mo  Mo23  1  1.47540000  7.78955000  4.85578000  1
  Mo  Mo24  1  -0.01659760  6.34488000  6.32465000  1
  Mo  Mo25  1  1.49697000  7.80212000  7.89838000  1
  Mo  Mo26  1  3.09740000  6.25195000  6.17623000  1
  Mo  Mo27  1  4.66510000  1.78258000  1.60008000  1
  Mo  Mo28  1  6.26982000  -0.08833700  0.02411100  1
  Mo  Mo29  1  7.83165000  1.70674000  1.67243000  1
  Mo  Mo30  1  6.37536000  0.21717200  3.12065000  1
  Mo  Mo31  1  6.32545000  3.04084000  -0.04393170  1
  Mo  Mo32  1  6.28342000  3.38795000  3.09402000  1
  Mo  Mo33  1  4.75032000  1.63231000  4.65937000  1
  Mo  Mo34  1  4.71815000  1.46996000  7.69572000  1
  Mo  Mo35  1  7.88125000  1.60191000  4.96711000  1
  Mo  Mo36  1  6.44955000  -0.22337300  6.48279000  1
  Mo  Mo37  1  8.05455000  1.62829000  8.12438000  1
  Mo  Mo38  1  6.50680000  3.05523000  6.48004000  1
  Mo  Mo39  1  4.86374000  4.71930000  1.50802000  1
  Mo  Mo40  1  4.93642000  7.97769000  1.54215000  1
  Mo  Mo41  1  8.10098000  5.00519000  1.59926000  1
  Mo  Mo42  1  6.33523000  6.35130000  -0.06416960  1
  Mo  Mo43  1  7.80987000  8.08851000  1.57533000  1
  Mo  Mo44  1  6.46844000  6.48072000  3.14201000  1
  Mo  Mo45  1  4.80463000  4.84376000  4.73836000  1
  Mo  Mo46  1  4.75483000  4.68399000  7.79989000  1
  Mo  Mo47  1  4.66345000  8.04331000  4.84997000  1
  Mo  Mo48  1  4.56231000  7.96721000  7.75267000  1
  Mo  Mo49  1  7.95232000  4.75447000  4.84927000  1
  Mo  Mo50  1  7.96150000  4.79916000  8.29739000  1
  Mo  Mo51  1  8.00175000  7.96276000  4.56105000  1
  Mo  Mo52  1  6.39718000  6.22703000  6.39791000  1
  Mo  Mo53  1  8.07232000  8.16148000  7.75884000  1
