# generated using pymatgen
data_Mo
_symmetry_space_group_name_H-M   'P 1'
_cell_length_a   9.64000000
_cell_length_b   9.64000000
_cell_length_c   9.64000000
_cell_angle_alpha   90.00000000
_cell_angle_beta   90.00000000
_cell_angle_gamma   90.00000000
_symmetry_Int_Tables_number   1
_chemical_formula_structural   Mo
_chemical_formula_sum   Mo54
_cell_volume   895.84134400
_cell_formula_units_Z   54
loop_
 _symmetry_equiv_pos_site_id
 _symmetry_equiv_pos_as_xyz
  1  'x, y, z'
loop_
 _atom_site_type_symbol
 _atom_site_label
 _atom_site_symmetry_multiplicity
 _atom_site_fract_x
 _atom_site_fract_y
 _atom_site_fract_z
 _atom_site_occupancy
  Mo  Mo0  1  -0.13980400  -0.36297700  0.17641100  1
  Mo  Mo1  1  1.42115000  1.40684000  1.50118000  1
  Mo  Mo2  1  0.05947510  -0.17754200  3.04632000  1
  Mo  Mo3  1  1.56763000  1.51351000  4.87570000  1
  Mo  Mo4  1  0.00816244  3.24674000  -0.15674300  1
  Mo  Mo5  1  1.65758000  4.87007000  1.70810000  1
  Mo  Mo6  1  -0.00035615  3.11367000  3.42196000  1
  Mo  Mo7  1  1.49276000  4.71158000  4.86957000  1
  Mo  Mo8  1  3.29311000  0.01176260  -0.05213360  1
  Mo  Mo9  1  4.88721000  1.59247000  1.45383000  1
  Mo  Mo10  1  3.35112000  0.06717970  3.09428000  1
  Mo  Mo11  1  4.71315000  1.65016000  4.75688000  1
  Mo  Mo12  1  3.06644000  3.18286000  -0.20663900  1
  Mo  Mo13  1  4.73428000  4.79105000  1.45928000  1
  Mo  Mo14  1  3.06951000  3.25707000  3.32875000  1
  Mo  Mo15  1  4.86370000  4.71889000  4.83299000  1
  Mo  Mo16  1  -0.02669650  0.05351590  6.15745000  1
  Mo  Mo17  1  1.51413000  1.57832000  7.96893000  1
  Mo  Mo18  1  0.01171880  3.01624000  6.51941000  1
  Mo  Mo19  1  1.58171000  4.92344000  8.17787000  1
  Mo  Mo20  1  3.14833000  -0.03663490  6.38387000  1
  Mo  Mo21  1  4.66503000  1.45183000  8.00853000  1
  Mo  Mo22  1  3.13891000  3.26711000  6.46530000  1
  Mo  Mo23  1  4.73343000  4.74940000  7.96369000  1
  Mo  Mo24  1  0.00454370  6.62840000  -0.06961150  1
  Mo  Mo25  1  1.53322000  8.05747000  1.79935000  1
  Mo  Mo26  1  0.16996100  6.38558000  3.26099000  1
  Mo  Mo27  1  1.47264000  8.12379000  4.84927000  1
  Mo  Mo28  1  2.98224000  6.45170000  -0.13326200  1
  Mo  Mo29  1  4.62911000  7.86618000  1.54821000  1
  Mo  Mo30  1  3.40615000  6.35126000  3.34217000  1
  Mo  Mo31  1  4.85750000  8.03946000  4.66437000  1
  Mo  Mo32  1  -0.25704500  6.44913000  6.39870000  1
  Mo  Mo33  1  1.49206000  7.92834000  8.00378000  1
  Mo  Mo34  1  3.21609000  6.54829000  6.43772000  1
  Mo  Mo35  1  4.67928000  8.00552000  7.87586000  1
  Mo  Mo36  1  6.39265000  0.07654040  -0.24662700  1
  Mo  Mo37  1  7.82889000  1.64619000  1.54564000  1
  Mo  Mo38  1  6.33991000  -0.00629196  3.12505000  1
  Mo  Mo39  1  7.93776000  1.43196000  4.95193000  1
  Mo  Mo40  1  6.44133000  3.15895000  -0.29053400  1
  Mo  Mo41  1  8.10018000  4.64322000  1.64317000  1
  Mo  Mo42  1  6.56578000  3.10585000  3.22455000  1
  Mo  Mo43  1  8.04914000  4.78124000  4.75502000  1
  Mo  Mo44  1  6.52219000  -0.13851700  6.35723000  1
  Mo  Mo45  1  8.10112000  1.52001000  7.89253000  1
  Mo  Mo46  1  6.27523000  3.13387000  6.36832000  1
  Mo  Mo47  1  8.00371000  4.65910000  7.87231000  1
  Mo  Mo48  1  6.26243000  6.46977000  -0.22752800  1
  Mo  Mo49  1  8.07572000  8.01911000  1.66687000  1
  Mo  Mo50  1  6.43496000  6.44299000  3.04556000  1
  Mo  Mo51  1  7.96949000  7.93954000  4.75312000  1
  Mo  Mo52  1  6.48567000  6.40369000  6.43063000  1
  Mo  Mo53  1  7.86643000  7.93109000  8.05039000  1
