# generated using pymatgen
data_Mo
_symmetry_space_group_name_H-M   'P 1'
_cell_length_a   3.29205704
_cell_length_b   3.09778355
_cell_length_c   3.27205659
_cell_angle_alpha   90.39817437
_cell_angle_beta   92.81408383
_cell_angle_gamma   85.94889305
_symmetry_Int_Tables_number   1
_chemical_formula_structural   Mo
_chemical_formula_sum   Mo2
_cell_volume   33.24497963
_cell_formula_units_Z   2
loop_
 _symmetry_equiv_pos_site_id
 _symmetry_equiv_pos_as_xyz
  1  'x, y, z'
loop_
 _atom_site_type_symbol
 _atom_site_label
 _atom_site_symmetry_multiplicity
 _atom_site_fract_x
 _atom_site_fract_y
 _atom_site_fract_z
 _atom_site_occupancy
  Mo  Mo0  1  0.00000000  0.00000000  0.00000000  1
  Mo  Mo1  1  1.66857516  1.64840040  1.53110520  1
