# generated using pymatgen
data_Mo
_symmetry_space_group_name_H-M   'P 1'
_cell_length_a   9.64000000
_cell_length_b   9.64000000
_cell_length_c   9.64000000
_cell_angle_alpha   90.00000000
_cell_angle_beta   90.00000000
_cell_angle_gamma   90.00000000
_symmetry_Int_Tables_number   1
_chemical_formula_structural   Mo
_chemical_formula_sum   Mo54
_cell_volume   895.84134400
_cell_formula_units_Z   54
loop_
 _symmetry_equiv_pos_site_id
 _symmetry_equiv_pos_as_xyz
  1  'x, y, z'
loop_
 _atom_site_type_symbol
 _atom_site_label
 _atom_site_symmetry_multiplicity
 _atom_site_fract_x
 _atom_site_fract_y
 _atom_site_fract_z
 _atom_site_occupancy
  Mo  Mo0  1  -0.08137280  0.11459800  -0.21024300  1
  Mo  Mo1  1  1.51550000  1.67223000  1.56770000  1
  Mo  Mo2  1  -0.17928900  -0.15581800  3.32591000  1
  Mo  Mo3  1  1.58391000  1.56916000  4.98091000  1
  Mo  Mo4  1  0.18475900  3.54316000  -0.11624700  1
  Mo  Mo5  1  1.62336000  4.89182000  1.54316000  1
  Mo  Mo6  1  -0.10744900  3.00143000  3.36659000  1
  Mo  Mo7  1  1.56429000  4.67699000  4.54718000  1
  Mo  Mo8  1  2.96009000  0.06572870  0.06365260  1
  Mo  Mo9  1  4.86747000  1.78209000  1.58730000  1
  Mo  Mo10  1  3.13579000  -0.00041316  3.07945000  1
  Mo  Mo11  1  5.01885000  1.50396000  4.81222000  1
  Mo  Mo12  1  3.18052000  3.03510000  -0.01902040  1
  Mo  Mo13  1  4.71372000  4.89880000  1.58088000  1
  Mo  Mo14  1  3.01112000  3.22694000  3.06853000  1
  Mo  Mo15  1  4.73016000  4.65866000  4.61526000  1
  Mo  Mo16  1  -0.24622500  -0.31615500  6.61567000  1
  Mo  Mo17  1  1.57124000  1.64727000  7.98440000  1
  Mo  Mo18  1  0.03287840  3.09334000  6.39497000  1
  Mo  Mo19  1  1.56195000  4.76202000  7.84778000  1
  Mo  Mo20  1  3.04852000  -0.11078400  6.52235000  1
  Mo  Mo21  1  4.57862000  1.51289000  8.06975000  1
  Mo  Mo22  1  3.17782000  3.20393000  6.53281000  1
  Mo  Mo23  1  4.83600000  4.64500000  8.05517000  1
  Mo  Mo24  1  -0.05531120  6.60589000  -0.18832500  1
  Mo  Mo25  1  1.46319000  8.23574000  1.68847000  1
  Mo  Mo26  1  -0.16749400  6.22537000  3.16892000  1
  Mo  Mo27  1  1.46706000  7.69635000  4.66932000  1
  Mo  Mo28  1  3.34494000  6.37263000  -0.16671700  1
  Mo  Mo29  1  4.82878000  7.96630000  1.49896000  1
  Mo  Mo30  1  3.30291000  6.48174000  3.30318000  1
  Mo  Mo31  1  4.79647000  8.07569000  4.83389000  1
  Mo  Mo32  1  0.24800400  6.25654000  6.21854000  1
  Mo  Mo33  1  1.65121000  7.85374000  7.91489000  1
  Mo  Mo34  1  3.35948000  6.22744000  6.44655000  1
  Mo  Mo35  1  4.68037000  7.96143000  7.98795000  1
  Mo  Mo36  1  6.50924000  0.14910400  -0.00116332  1
  Mo  Mo37  1  7.99762000  1.66790000  1.72501000  1
  Mo  Mo38  1  6.38928000  -0.02047470  3.20213000  1
  Mo  Mo39  1  8.08001000  1.57253000  4.84977000  1
  Mo  Mo40  1  6.60003000  3.29542000  0.04680020  1
  Mo  Mo41  1  8.20320000  4.73734000  1.53486000  1
  Mo  Mo42  1  6.43934000  3.28034000  3.30422000  1
  Mo  Mo43  1  8.02246000  4.81680000  4.94133000  1
  Mo  Mo44  1  6.34095000  -0.23534200  6.27556000  1
  Mo  Mo45  1  7.87012000  1.76656000  7.90165000  1
  Mo  Mo46  1  6.42731000  3.04446000  6.36628000  1
  Mo  Mo47  1  7.98133000  4.88141000  7.86563000  1
  Mo  Mo48  1  6.36345000  6.26664000  -0.03617170  1
  Mo  Mo49  1  8.02736000  8.00050000  1.63393000  1
  Mo  Mo50  1  6.07631000  6.39491000  2.95461000  1
  Mo  Mo51  1  7.95877000  7.79938000  4.46300000  1
  Mo  Mo52  1  6.37876000  6.41089000  6.48662000  1
  Mo  Mo53  1  7.78265000  7.94087000  7.94418000  1
