# generated using pymatgen
data_Mo
_symmetry_space_group_name_H-M   'P 1'
_cell_length_a   9.64000000
_cell_length_b   9.64000000
_cell_length_c   9.64000000
_cell_angle_alpha   90.00000000
_cell_angle_beta   90.00000000
_cell_angle_gamma   90.00000000
_symmetry_Int_Tables_number   1
_chemical_formula_structural   Mo
_chemical_formula_sum   Mo54
_cell_volume   895.84134400
_cell_formula_units_Z   54
loop_
 _symmetry_equiv_pos_site_id
 _symmetry_equiv_pos_as_xyz
  1  'x, y, z'
loop_
 _atom_site_type_symbol
 _atom_site_label
 _atom_site_symmetry_multiplicity
 _atom_site_fract_x
 _atom_site_fract_y
 _atom_site_fract_z
 _atom_site_occupancy
  Mo  Mo0  1  0.02526000  -0.07217740  0.06566490  1
  Mo  Mo1  1  1.78146000  1.41890000  1.52447000  1
  Mo  Mo2  1  0.04917030  -0.06911860  3.16695000  1
  Mo  Mo3  1  1.42170000  1.44423000  4.68307000  1
  Mo  Mo4  1  0.26715900  3.15389000  -0.09650030  1
  Mo  Mo5  1  1.64504000  4.83661000  1.49279000  1
  Mo  Mo6  1  0.12310200  2.90738000  3.01354000  1
  Mo  Mo7  1  1.34255000  4.56237000  4.55138000  1
  Mo  Mo8  1  3.25977000  -0.24033800  0.16408300  1
  Mo  Mo9  1  4.83844000  1.64610000  1.60284000  1
  Mo  Mo10  1  3.31173000  0.09873380  3.25486000  1
  Mo  Mo11  1  4.79187000  1.57545000  4.71899000  1
  Mo  Mo12  1  3.17374000  2.71315000  0.14820600  1
  Mo  Mo13  1  4.42404000  4.60768000  1.53694000  1
  Mo  Mo14  1  3.20736000  3.41449000  3.06257000  1
  Mo  Mo15  1  4.92463000  4.73700000  4.59562000  1
  Mo  Mo16  1  -0.01633190  -0.16786200  6.46898000  1
  Mo  Mo17  1  1.52886000  1.58818000  7.84639000  1
  Mo  Mo18  1  -0.10929800  3.10170000  6.31781000  1
  Mo  Mo19  1  1.42377000  4.62652000  7.95320000  1
  Mo  Mo20  1  3.17064000  0.14930800  6.48798000  1
  Mo  Mo21  1  4.85379000  1.72527000  7.92292000  1
  Mo  Mo22  1  3.14628000  3.40316000  6.06603000  1
  Mo  Mo23  1  4.84489000  4.83384000  7.88285000  1
  Mo  Mo24  1  0.08516180  6.41967000  0.00930604  1
  Mo  Mo25  1  1.53000000  8.02036000  1.66176000  1
  Mo  Mo26  1  -0.08992240  6.26638000  3.05332000  1
  Mo  Mo27  1  1.41980000  7.83854000  4.95800000  1
  Mo  Mo28  1  3.32450000  6.42586000  -0.11380900  1
  Mo  Mo29  1  4.75894000  7.98562000  1.77876000  1
  Mo  Mo30  1  3.04742000  6.43436000  3.37143000  1
  Mo  Mo31  1  4.78653000  7.94827000  4.93705000  1
  Mo  Mo32  1  -0.16771000  6.29022000  6.45016000  1
  Mo  Mo33  1  1.68889000  8.01627000  8.23561000  1
  Mo  Mo34  1  2.97635000  6.41940000  6.47424000  1
  Mo  Mo35  1  4.70427000  8.12878000  7.96497000  1
  Mo  Mo36  1  6.39999000  -0.07547520  -0.01344690  1
  Mo  Mo37  1  8.11379000  1.51327000  1.66929000  1
  Mo  Mo38  1  6.43978000  -0.03048070  3.37696000  1
  Mo  Mo39  1  7.80729000  1.70368000  4.84650000  1
  Mo  Mo40  1  6.23730000  3.23218000  -0.24842800  1
  Mo  Mo41  1  7.88328000  4.65519000  1.44864000  1
  Mo  Mo42  1  6.41063000  3.13022000  3.13618000  1
  Mo  Mo43  1  8.04756000  4.94385000  4.51144000  1
  Mo  Mo44  1  6.42138000  0.17368400  6.52095000  1
  Mo  Mo45  1  7.79704000  1.62128000  8.24109000  1
  Mo  Mo46  1  6.19785000  2.95643000  6.36395000  1
  Mo  Mo47  1  7.85803000  5.07988000  7.86083000  1
  Mo  Mo48  1  6.51450000  6.37753000  0.03287470  1
  Mo  Mo49  1  8.08883000  8.01849000  1.41170000  1
  Mo  Mo50  1  6.39561000  6.51299000  3.14500000  1
  Mo  Mo51  1  8.09605000  8.06751000  4.65099000  1
  Mo  Mo52  1  6.48397000  6.50215000  6.41962000  1
  Mo  Mo53  1  7.96324000  8.07944000  8.06345000  1
