# generated using pymatgen
data_Mo
_symmetry_space_group_name_H-M   'P 1'
_cell_length_a   9.64000000
_cell_length_b   9.64000000
_cell_length_c   9.64000000
_cell_angle_alpha   90.00000000
_cell_angle_beta   90.00000000
_cell_angle_gamma   90.00000000
_symmetry_Int_Tables_number   1
_chemical_formula_structural   Mo
_chemical_formula_sum   Mo54
_cell_volume   895.84134400
_cell_formula_units_Z   54
loop_
 _symmetry_equiv_pos_site_id
 _symmetry_equiv_pos_as_xyz
  1  'x, y, z'
loop_
 _atom_site_type_symbol
 _atom_site_label
 _atom_site_symmetry_multiplicity
 _atom_site_fract_x
 _atom_site_fract_y
 _atom_site_fract_z
 _atom_site_occupancy
  Mo  Mo0  1  -0.33854500  -0.00758421  -0.03002070  1
  Mo  Mo1  1  1.78283000  1.76517000  1.50178000  1
  Mo  Mo2  1  -0.00672121  -0.10307100  2.99201000  1
  Mo  Mo3  1  1.53719000  1.56298000  4.91970000  1
  Mo  Mo4  1  0.03428990  3.14534000  0.06277760  1
  Mo  Mo5  1  1.61664000  4.71550000  1.52843000  1
  Mo  Mo6  1  -0.03116470  3.30245000  3.11713000  1
  Mo  Mo7  1  1.56579000  4.54442000  4.67339000  1
  Mo  Mo8  1  3.09342000  0.00441439  0.00006403  1
  Mo  Mo9  1  4.76759000  1.56737000  1.59393000  1
  Mo  Mo10  1  3.29008000  -0.00162960  3.14422000  1
  Mo  Mo11  1  4.89723000  1.53881000  4.62854000  1
  Mo  Mo12  1  3.20231000  3.21001000  -0.14890900  1
  Mo  Mo13  1  4.90375000  4.81549000  1.62136000  1
  Mo  Mo14  1  3.21155000  3.16069000  3.07467000  1
  Mo  Mo15  1  4.71722000  4.97900000  4.84688000  1
  Mo  Mo16  1  0.06816720  -0.05906160  6.28404000  1
  Mo  Mo17  1  1.51226000  1.53943000  7.84468000  1
  Mo  Mo18  1  -0.14937800  3.30110000  6.30476000  1
  Mo  Mo19  1  1.44280000  5.00721000  8.03160000  1
  Mo  Mo20  1  3.17448000  -0.18732800  6.35036000  1
  Mo  Mo21  1  4.69152000  1.54538000  7.84553000  1
  Mo  Mo22  1  3.00304000  3.42038000  6.50184000  1
  Mo  Mo23  1  4.83682000  4.58982000  8.18377000  1
  Mo  Mo24  1  -0.03993330  6.22504000  0.20028200  1
  Mo  Mo25  1  1.37445000  7.88182000  1.61818000  1
  Mo  Mo26  1  0.06268410  6.45850000  3.13248000  1
  Mo  Mo27  1  1.48481000  8.09318000  4.85608000  1
  Mo  Mo28  1  3.14705000  6.22293000  0.07045050  1
  Mo  Mo29  1  4.60792000  7.79469000  1.51513000  1
  Mo  Mo30  1  3.15353000  6.38373000  3.29385000  1
  Mo  Mo31  1  4.86077000  8.12132000  4.70644000  1
  Mo  Mo32  1  -0.09732820  6.48076000  6.40840000  1
  Mo  Mo33  1  1.53230000  8.05648000  8.13832000  1
  Mo  Mo34  1  3.28885000  6.56686000  6.61658000  1
  Mo  Mo35  1  4.83550000  8.04375000  7.92538000  1
  Mo  Mo36  1  6.38251000  -0.01252570  -0.07895030  1
  Mo  Mo37  1  7.93515000  1.62329000  1.37220000  1
  Mo  Mo38  1  6.47332000  0.19406400  3.05714000  1
  Mo  Mo39  1  8.16916000  1.67414000  4.60494000  1
  Mo  Mo40  1  6.60508000  3.01522000  -0.14315200  1
  Mo  Mo41  1  8.03752000  4.65178000  1.60314000  1
  Mo  Mo42  1  6.29616000  3.12088000  3.17837000  1
  Mo  Mo43  1  8.11626000  4.90708000  4.65903000  1
  Mo  Mo44  1  6.37072000  -0.04564730  6.25504000  1
  Mo  Mo45  1  8.02281000  1.44049000  7.90922000  1
  Mo  Mo46  1  6.38746000  3.15345000  6.25672000  1
  Mo  Mo47  1  8.09807000  4.56484000  8.03498000  1
  Mo  Mo48  1  6.33341000  6.24721000  0.19933600  1
  Mo  Mo49  1  7.76043000  7.80594000  1.63620000  1
  Mo  Mo50  1  6.35651000  6.41762000  3.12620000  1
  Mo  Mo51  1  7.95176000  8.02306000  4.77332000  1
  Mo  Mo52  1  6.35898000  6.30673000  6.65135000  1
  Mo  Mo53  1  7.96092000  7.87703000  8.20082000  1
