# generated using pymatgen
data_Mo
_symmetry_space_group_name_H-M   'P 1'
_cell_length_a   9.64000000
_cell_length_b   9.64000000
_cell_length_c   9.64000000
_cell_angle_alpha   90.00000000
_cell_angle_beta   90.00000000
_cell_angle_gamma   90.00000000
_symmetry_Int_Tables_number   1
_chemical_formula_structural   Mo
_chemical_formula_sum   Mo54
_cell_volume   895.84134400
_cell_formula_units_Z   54
loop_
 _symmetry_equiv_pos_site_id
 _symmetry_equiv_pos_as_xyz
  1  'x, y, z'
loop_
 _atom_site_type_symbol
 _atom_site_label
 _atom_site_symmetry_multiplicity
 _atom_site_fract_x
 _atom_site_fract_y
 _atom_site_fract_z
 _atom_site_occupancy
  Mo  Mo0  1  -0.04313850  -0.18344400  0.24314600  1
  Mo  Mo1  1  1.63542000  1.97175000  1.42484000  1
  Mo  Mo2  1  0.06827900  -0.02536410  3.24845000  1
  Mo  Mo3  1  1.41382000  1.48744000  4.77938000  1
  Mo  Mo4  1  -0.18970500  3.09699000  -0.34721800  1
  Mo  Mo5  1  1.23952000  4.96045000  1.66511000  1
  Mo  Mo6  1  0.13188900  3.09188000  3.07958000  1
  Mo  Mo7  1  1.59463000  4.83935000  4.73049000  1
  Mo  Mo8  1  3.12027000  0.12147200  -0.01764980  1
  Mo  Mo9  1  4.80312000  1.52329000  1.56078000  1
  Mo  Mo10  1  3.26122000  0.22325600  3.48877000  1
  Mo  Mo11  1  4.89911000  1.51747000  4.58316000  1
  Mo  Mo12  1  3.31004000  3.05553000  -0.09773330  1
  Mo  Mo13  1  4.51595000  4.63303000  1.70449000  1
  Mo  Mo14  1  3.17579000  3.10855000  3.05470000  1
  Mo  Mo15  1  5.01742000  4.79069000  5.04249000  1
  Mo  Mo16  1  0.06190990  -0.16187000  6.36315000  1
  Mo  Mo17  1  1.49839000  1.65382000  8.19045000  1
  Mo  Mo18  1  0.17178300  3.21054000  6.06991000  1
  Mo  Mo19  1  1.70359000  4.71008000  8.22112000  1
  Mo  Mo20  1  3.15905000  -0.04976000  6.38909000  1
  Mo  Mo21  1  4.73175000  1.32090000  7.89671000  1
  Mo  Mo22  1  3.22006000  3.35448000  6.38231000  1
  Mo  Mo23  1  4.58717000  4.73016000  8.12826000  1
  Mo  Mo24  1  -0.16188100  6.44175000  -0.17285800  1
  Mo  Mo25  1  1.51373000  8.10868000  1.51285000  1
  Mo  Mo26  1  -0.11015700  6.37812000  3.51571000  1
  Mo  Mo27  1  1.59456000  8.01494000  4.62924000  1
  Mo  Mo28  1  2.94863000  6.13820000  -0.00004811  1
  Mo  Mo29  1  4.80842000  7.88539000  1.58057000  1
  Mo  Mo30  1  2.96320000  6.58549000  3.23832000  1
  Mo  Mo31  1  4.94374000  8.10258000  4.62601000  1
  Mo  Mo32  1  0.30560600  6.33150000  6.57098000  1
  Mo  Mo33  1  1.37982000  8.12670000  8.03317000  1
  Mo  Mo34  1  3.05784000  6.38423000  6.14906000  1
  Mo  Mo35  1  4.58978000  7.86150000  7.97433000  1
  Mo  Mo36  1  6.38194000  -0.00965931  0.00852653  1
  Mo  Mo37  1  7.68443000  1.57985000  1.66984000  1
  Mo  Mo38  1  6.39414000  0.12655400  3.04823000  1
  Mo  Mo39  1  7.90643000  1.51403000  4.83640000  1
  Mo  Mo40  1  6.38421000  3.18490000  -0.15204100  1
  Mo  Mo41  1  8.14858000  4.71510000  1.82968000  1
  Mo  Mo42  1  6.27028000  3.25854000  3.06545000  1
  Mo  Mo43  1  8.15230000  4.63728000  4.76277000  1
  Mo  Mo44  1  6.40207000  -0.21880900  6.32145000  1
  Mo  Mo45  1  7.87941000  1.53471000  8.22035000  1
  Mo  Mo46  1  6.86869000  3.11261000  6.14176000  1
  Mo  Mo47  1  8.25568000  4.75354000  7.87893000  1
  Mo  Mo48  1  6.27437000  6.50060000  0.06281850  1
  Mo  Mo49  1  8.18883000  7.96214000  1.45956000  1
  Mo  Mo50  1  6.53925000  6.53543000  3.23071000  1
  Mo  Mo51  1  8.03367000  7.84823000  4.70703000  1
  Mo  Mo52  1  6.10134000  6.15030000  6.33540000  1
  Mo  Mo53  1  7.86376000  8.12488000  7.78201000  1
