# generated using pymatgen
data_Mo
_symmetry_space_group_name_H-M   'P 1'
_cell_length_a   9.64000000
_cell_length_b   9.64000000
_cell_length_c   9.64000000
_cell_angle_alpha   90.00000000
_cell_angle_beta   90.00000000
_cell_angle_gamma   90.00000000
_symmetry_Int_Tables_number   1
_chemical_formula_structural   Mo
_chemical_formula_sum   Mo54
_cell_volume   895.84134400
_cell_formula_units_Z   54
loop_
 _symmetry_equiv_pos_site_id
 _symmetry_equiv_pos_as_xyz
  1  'x, y, z'
loop_
 _atom_site_type_symbol
 _atom_site_label
 _atom_site_symmetry_multiplicity
 _atom_site_fract_x
 _atom_site_fract_y
 _atom_site_fract_z
 _atom_site_occupancy
  Mo  Mo0  1  -0.10499700  -0.02763480  0.01363600  1
  Mo  Mo1  1  1.63958000  1.55452000  1.45734000  1
  Mo  Mo2  1  -0.04261720  -0.03144510  3.15852000  1
  Mo  Mo3  1  1.57936000  1.49950000  4.85624000  1
  Mo  Mo4  1  0.15206000  3.23919000  0.04850540  1
  Mo  Mo5  1  1.67420000  4.88295000  1.43008000  1
  Mo  Mo6  1  -0.14543000  2.91709000  3.39711000  1
  Mo  Mo7  1  1.42313000  4.83885000  4.70207000  1
  Mo  Mo8  1  3.07604000  0.08163940  0.13732800  1
  Mo  Mo9  1  4.99664000  1.91244000  1.29889000  1
  Mo  Mo10  1  3.01865000  0.01343100  3.30437000  1
  Mo  Mo11  1  4.81632000  1.44765000  4.70777000  1
  Mo  Mo12  1  3.12943000  3.14603000  -0.47699100  1
  Mo  Mo13  1  4.61609000  4.78045000  1.47090000  1
  Mo  Mo14  1  3.17115000  3.21329000  2.90513000  1
  Mo  Mo15  1  4.88328000  4.24411000  4.60687000  1
  Mo  Mo16  1  -0.06074220  -0.09573010  6.55030000  1
  Mo  Mo17  1  1.54799000  1.16146000  7.89111000  1
  Mo  Mo18  1  0.03896460  3.03400000  6.56560000  1
  Mo  Mo19  1  1.75939000  4.88817000  8.12882000  1
  Mo  Mo20  1  3.11357000  -0.20045000  6.34544000  1
  Mo  Mo21  1  4.57731000  1.58988000  7.92525000  1
  Mo  Mo22  1  2.86630000  3.02777000  6.23324000  1
  Mo  Mo23  1  4.64701000  5.02371000  8.15302000  1
  Mo  Mo24  1  0.05510420  6.37554000  -0.26779200  1
  Mo  Mo25  1  1.48755000  8.07059000  1.59826000  1
  Mo  Mo26  1  0.05427240  6.52105000  3.08555000  1
  Mo  Mo27  1  1.47259000  7.95348000  4.88285000  1
  Mo  Mo28  1  3.33543000  6.61922000  0.13679300  1
  Mo  Mo29  1  4.84296000  8.22062000  1.58231000  1
  Mo  Mo30  1  3.26071000  6.33651000  3.24123000  1
  Mo  Mo31  1  4.57916000  7.86157000  4.60391000  1
  Mo  Mo32  1  -0.04053470  6.34277000  6.34494000  1
  Mo  Mo33  1  1.64652000  7.83403000  8.12256000  1
  Mo  Mo34  1  3.40584000  6.38282000  6.32869000  1
  Mo  Mo35  1  4.67838000  7.98750000  8.09780000  1
  Mo  Mo36  1  6.39035000  -0.10315200  0.07040730  1
  Mo  Mo37  1  8.00498000  1.32240000  1.46624000  1
  Mo  Mo38  1  6.33169000  -0.03881710  3.15273000  1
  Mo  Mo39  1  8.00347000  1.76752000  4.85440000  1
  Mo  Mo40  1  6.23190000  3.52202000  -0.03914690  1
  Mo  Mo41  1  8.26952000  4.65839000  1.42962000  1
  Mo  Mo42  1  6.32966000  3.27018000  3.12103000  1
  Mo  Mo43  1  7.77130000  4.70767000  4.79552000  1
  Mo  Mo44  1  6.51444000  0.22822500  6.52974000  1
  Mo  Mo45  1  8.16035000  1.55557000  7.99440000  1
  Mo  Mo46  1  6.33737000  2.93021000  6.35482000  1
  Mo  Mo47  1  8.09034000  4.82764000  8.05229000  1
  Mo  Mo48  1  6.25124000  6.47629000  0.16687500  1
  Mo  Mo49  1  8.11613000  7.84458000  1.80902000  1
  Mo  Mo50  1  6.58444000  6.32814000  3.03171000  1
  Mo  Mo51  1  7.71690000  7.96498000  4.71162000  1
  Mo  Mo52  1  6.46580000  6.64584000  6.47972000  1
  Mo  Mo53  1  7.92946000  8.09571000  8.10138000  1
