# generated using pymatgen
data_Mo
_symmetry_space_group_name_H-M   'P 1'
_cell_length_a   9.64000000
_cell_length_b   9.64000000
_cell_length_c   9.64000000
_cell_angle_alpha   90.00000000
_cell_angle_beta   90.00000000
_cell_angle_gamma   90.00000000
_symmetry_Int_Tables_number   1
_chemical_formula_structural   Mo
_chemical_formula_sum   Mo54
_cell_volume   895.84134400
_cell_formula_units_Z   54
loop_
 _symmetry_equiv_pos_site_id
 _symmetry_equiv_pos_as_xyz
  1  'x, y, z'
loop_
 _atom_site_type_symbol
 _atom_site_label
 _atom_site_symmetry_multiplicity
 _atom_site_fract_x
 _atom_site_fract_y
 _atom_site_fract_z
 _atom_site_occupancy
  Mo  Mo0  1  3.06576000  3.09573000  3.20676000  1
  Mo  Mo1  1  1.63650000  1.40732000  1.71718000  1
  Mo  Mo2  1  1.63221000  4.93656000  1.54200000  1
  Mo  Mo3  1  1.28283000  1.39195000  4.71272000  1
  Mo  Mo4  1  4.70955000  1.82131000  4.82908000  1
  Mo  Mo5  1  3.24701000  3.32346000  6.55056000  1
  Mo  Mo6  1  1.89156000  1.51587000  8.17645000  1
  Mo  Mo7  1  5.02095000  1.87815000  8.03676000  1
  Mo  Mo8  1  1.59273000  4.69441000  7.91264000  1
  Mo  Mo9  1  4.70833000  4.88742000  8.10121000  1
  Mo  Mo10  1  2.69181000  2.96502000  9.78698000  1
  Mo  Mo11  1  1.62589000  4.64755000  4.45764000  1
  Mo  Mo12  1  3.27178000  6.21886000  2.87886000  1
  Mo  Mo13  1  1.68362000  8.24118000  1.36813000  1
  Mo  Mo14  1  3.18877000  9.94732000  3.23623000  1
  Mo  Mo15  1  -0.18702400  6.27695000  3.40818000  1
  Mo  Mo16  1  1.38445000  7.83317000  4.79734000  1
  Mo  Mo17  1  3.54893000  9.79799000  -0.02936410  1
  Mo  Mo18  1  4.34551000  8.15382000  4.84561000  1
  Mo  Mo19  1  5.03012000  8.34324000  8.36393000  1
  Mo  Mo20  1  1.64456000  7.96959000  7.75272000  1
  Mo  Mo21  1  3.28647000  6.46201000  6.47917000  1
  Mo  Mo22  1  3.41386000  9.43306000  6.43947000  1
  Mo  Mo23  1  3.05078000  6.31480000  9.62930000  1
  Mo  Mo24  1  6.15794000  3.26667000  3.13270000  1
  Mo  Mo25  1  8.11353000  1.37893000  1.63806000  1
  Mo  Mo26  1  8.00256000  1.70002000  4.80440000  1
  Mo  Mo27  1  9.47553000  3.07083000  3.11935000  1
  Mo  Mo28  1  4.95067000  1.39794000  1.84145000  1
  Mo  Mo29  1  7.71141000  4.52819000  1.55833000  1
  Mo  Mo30  1  9.60923000  -0.22252700  3.34555000  1
  Mo  Mo31  1  4.55485000  4.69870000  4.85875000  1
  Mo  Mo32  1  9.34599000  2.89595000  -0.18028200  1
  Mo  Mo33  1  9.45223000  -0.13018900  -0.46441300  1
  Mo  Mo34  1  6.34592000  3.32893000  6.07655000  1
  Mo  Mo35  1  7.95555000  1.65869000  7.82985000  1
  Mo  Mo36  1  9.67870000  -0.20035200  6.41452000  1
  Mo  Mo37  1  6.57746000  -0.10093300  6.49675000  1
  Mo  Mo38  1  6.61824000  3.15880000  9.43338000  1
  Mo  Mo39  1  9.79596000  3.48657000  6.35326000  1
  Mo  Mo40  1  7.86366000  4.79002000  4.66805000  1
  Mo  Mo41  1  6.18079000  6.47662000  2.87994000  1
  Mo  Mo42  1  7.94274000  7.86159000  1.47768000  1
  Mo  Mo43  1  4.70238000  4.48094000  1.78181000  1
  Mo  Mo44  1  6.59402000  9.66185000  3.21337000  1
  Mo  Mo45  1  4.59329000  8.35429000  1.70064000  1
  Mo  Mo46  1  6.41583000  6.11555000  6.38683000  1
  Mo  Mo47  1  8.02836000  7.76785000  7.64120000  1
  Mo  Mo48  1  9.79368000  6.38965000  6.43723000  1
  Mo  Mo49  1  7.62806000  7.87164000  4.67629000  1
  Mo  Mo50  1  8.43654000  4.77223000  8.39469000  1
  Mo  Mo51  1  6.60744000  9.74181000  9.71831000  1
  Mo  Mo52  1  9.48740000  6.73713000  9.63582000  1
  Mo  Mo53  1  6.38311000  6.35586000  9.42041000  1
