# generated using pymatgen
data_Mo
_symmetry_space_group_name_H-M   'P 1'
_cell_length_a   9.64000000
_cell_length_b   9.64000000
_cell_length_c   9.64000000
_cell_angle_alpha   90.00000000
_cell_angle_beta   90.00000000
_cell_angle_gamma   90.00000000
_symmetry_Int_Tables_number   1
_chemical_formula_structural   Mo
_chemical_formula_sum   Mo54
_cell_volume   895.84134400
_cell_formula_units_Z   54
loop_
 _symmetry_equiv_pos_site_id
 _symmetry_equiv_pos_as_xyz
  1  'x, y, z'
loop_
 _atom_site_type_symbol
 _atom_site_label
 _atom_site_symmetry_multiplicity
 _atom_site_fract_x
 _atom_site_fract_y
 _atom_site_fract_z
 _atom_site_occupancy
  Mo  Mo0  1  3.07776000  3.24935000  3.23464000  1
  Mo  Mo1  1  1.69742000  1.58038000  1.77015000  1
  Mo  Mo2  1  1.27935000  4.96346000  1.79247000  1
  Mo  Mo3  1  1.80375000  1.34925000  4.64357000  1
  Mo  Mo4  1  4.70559000  4.82138000  1.49652000  1
  Mo  Mo5  1  4.57698000  1.72285000  1.35433000  1
  Mo  Mo6  1  3.03726000  -0.09197960  -0.14577500  1
  Mo  Mo7  1  2.96113000  2.94582000  6.30265000  1
  Mo  Mo8  1  1.29010000  1.44107000  8.24077000  1
  Mo  Mo9  1  2.80115000  3.00171000  9.65667000  1
  Mo  Mo10  1  4.62181000  4.89660000  8.06870000  1
  Mo  Mo11  1  3.27771000  -0.17931100  6.44039000  1
  Mo  Mo12  1  0.13246400  2.88656000  6.34763000  1
  Mo  Mo13  1  1.57273000  4.68523000  8.18731000  1
  Mo  Mo14  1  1.59929000  4.98221000  5.12484000  1
  Mo  Mo15  1  3.22264000  6.19172000  3.15871000  1
  Mo  Mo16  1  1.92205000  8.19443000  1.55830000  1
  Mo  Mo17  1  4.68349000  7.86608000  1.50136000  1
  Mo  Mo18  1  3.37815000  9.45726000  3.25947000  1
  Mo  Mo19  1  0.28651800  6.68604000  3.33431000  1
  Mo  Mo20  1  3.28269000  6.33956000  6.52833000  1
  Mo  Mo21  1  1.33323000  8.15189000  8.14336000  1
  Mo  Mo22  1  0.00779795  6.40586000  6.64111000  1
  Mo  Mo23  1  4.39291000  8.33406000  8.03737000  1
  Mo  Mo24  1  0.11859100  9.64581000  6.60923000  1
  Mo  Mo25  1  1.83750000  7.96246000  4.83650000  1
  Mo  Mo26  1  3.18698000  6.44303000  9.55802000  1
  Mo  Mo27  1  6.44201000  3.05268000  3.07393000  1
  Mo  Mo28  1  7.96193000  1.24285000  1.26048000  1
  Mo  Mo29  1  8.21482000  1.41498000  4.70915000  1
  Mo  Mo30  1  9.46682000  3.19411000  3.42749000  1
  Mo  Mo31  1  8.01180000  4.89748000  1.66759000  1
  Mo  Mo32  1  9.83021000  -0.23723400  3.33899000  1
  Mo  Mo33  1  6.51799000  3.46264000  0.09701340  1
  Mo  Mo34  1  9.32453000  2.97202000  0.04687030  1
  Mo  Mo35  1  4.96689000  1.48797000  4.47589000  1
  Mo  Mo36  1  6.54343000  3.22737000  5.99201000  1
  Mo  Mo37  1  8.00243000  1.38132000  7.81693000  1
  Mo  Mo38  1  4.69777000  4.69959000  4.60596000  1
  Mo  Mo39  1  7.99014000  4.81563000  7.62436000  1
  Mo  Mo40  1  6.44455000  -0.09394760  6.04914000  1
  Mo  Mo41  1  5.05608000  2.45439000  8.33806000  1
  Mo  Mo42  1  6.04432000  0.12793300  9.30566000  1
  Mo  Mo43  1  6.54942000  6.36540000  3.11351000  1
  Mo  Mo44  1  7.69283000  7.94055000  1.66993000  1
  Mo  Mo45  1  8.15082000  7.86631000  4.87685000  1
  Mo  Mo46  1  6.51612000  9.50396000  3.03805000  1
  Mo  Mo47  1  9.52707000  6.76648000  0.10452400  1
  Mo  Mo48  1  9.32540000  9.38424000  0.14605700  1
  Mo  Mo49  1  4.84083000  7.87090000  4.57082000  1
  Mo  Mo50  1  6.32832000  6.30960000  6.35234000  1
  Mo  Mo51  1  7.85220000  7.82830000  7.74317000  1
  Mo  Mo52  1  6.36753000  6.54945000  9.46926000  1
  Mo  Mo53  1  8.09671000  4.79224000  4.61503000  1
