# generated using pymatgen
data_Mo
_symmetry_space_group_name_H-M   'P 1'
_cell_length_a   9.46604618
_cell_length_b   9.46604503
_cell_length_c   9.46605243
_cell_angle_alpha   89.99993799
_cell_angle_beta   90.00002894
_cell_angle_gamma   90.00006502
_symmetry_Int_Tables_number   1
_chemical_formula_structural   Mo
_chemical_formula_sum   Mo53
_cell_volume   848.21527775
_cell_formula_units_Z   53
loop_
 _symmetry_equiv_pos_site_id
 _symmetry_equiv_pos_as_xyz
  1  'x, y, z'
loop_
 _atom_site_type_symbol
 _atom_site_label
 _atom_site_symmetry_multiplicity
 _atom_site_fract_x
 _atom_site_fract_y
 _atom_site_fract_z
 _atom_site_occupancy
  Mo  Mo0  1  1.55412509  1.58170268  1.51459230  1
  Mo  Mo1  1  -0.00832505  -0.08758936  3.15253188  1
  Mo  Mo2  1  1.56040640  1.49491043  4.74272241  1
  Mo  Mo3  1  -0.01476723  0.00559163  6.31161225  1
  Mo  Mo4  1  1.58904951  1.52870640  7.90961296  1
  Mo  Mo5  1  0.01650711  3.11932678  0.00508776  1
  Mo  Mo6  1  1.49911550  4.71473862  1.51555272  1
  Mo  Mo7  1  -0.04642790  3.16129450  3.18417506  1
  Mo  Mo8  1  1.53614894  4.69910370  4.72740707  1
  Mo  Mo9  1  -0.03914576  3.17547925  6.28586595  1
  Mo  Mo10  1  1.63776771  4.74808131  7.95356917  1
  Mo  Mo11  1  0.03142383  6.36344442  0.03470800  1
  Mo  Mo12  1  1.53327071  7.93219758  1.57140641  1
  Mo  Mo13  1  0.02389894  6.22457301  3.17431993  1
  Mo  Mo14  1  1.56930073  7.82163074  4.80330202  1
  Mo  Mo15  1  0.04809083  6.28957889  6.27966913  1
  Mo  Mo16  1  1.56073180  7.90899597  7.91435553  1
  Mo  Mo17  1  3.08106039  0.06486939  0.01238143  1
  Mo  Mo18  1  4.72353790  1.63635466  1.53897472  1
  Mo  Mo19  1  3.20511514  0.01055927  3.13730913  1
  Mo  Mo20  1  4.77027248  1.53732332  4.70942987  1
  Mo  Mo21  1  3.13221113  -0.05860481  6.24775649  1
  Mo  Mo22  1  4.78773988  1.54004502  7.94786827  1
  Mo  Mo23  1  3.14263651  3.19265935  -0.01260305  1
  Mo  Mo24  1  4.67307264  4.77460734  1.58648319  1
  Mo  Mo25  1  3.13480316  3.15704800  3.23391738  1
  Mo  Mo26  1  4.69637470  4.71477597  4.72605869  1
  Mo  Mo27  1  3.15850448  3.14426647  6.30635513  1
  Mo  Mo28  1  4.72661399  4.70980960  7.94156295  1
  Mo  Mo29  1  3.17842971  6.35644285  0.01758229  1
  Mo  Mo30  1  4.71845779  7.97517740  1.56018248  1
  Mo  Mo31  1  3.17400171  6.28439367  3.17270792  1
  Mo  Mo32  1  4.73325090  7.87070533  4.66003919  1
  Mo  Mo33  1  3.20249471  6.27517921  6.26370658  1
  Mo  Mo34  1  4.72518985  7.94408801  7.83147911  1
  Mo  Mo35  1  6.31334614  -0.07204071  0.00189300  1
  Mo  Mo36  1  7.85529710  1.59493257  1.50133712  1
  Mo  Mo37  1  6.33275374  0.03710049  3.15565976  1
  Mo  Mo38  1  7.92073769  1.58238623  4.73945854  1
  Mo  Mo39  1  6.26125123  0.00589159  6.29761016  1
  Mo  Mo40  1  7.90247360  1.61275110  7.85589028  1
  Mo  Mo41  1  6.30557873  3.16063299  0.05155059  1
  Mo  Mo42  1  7.86612866  4.70002665  1.49136076  1
  Mo  Mo43  1  6.29859707  3.22246834  3.20130522  1
  Mo  Mo44  1  7.87973750  4.75394138  4.75280040  1
  Mo  Mo45  1  6.29132902  3.20486785  6.30290363  1
  Mo  Mo46  1  7.96872336  4.73893233  7.89579301  1
  Mo  Mo47  1  6.33364397  6.23484235  0.02368316  1
  Mo  Mo48  1  7.90376067  7.93756672  1.59085472  1
  Mo  Mo49  1  6.29248168  6.31541683  3.14406116  1
  Mo  Mo50  1  7.94665404  7.92861451  4.76737814  1
  Mo  Mo51  1  6.37039413  6.32113012  6.28924991  1
  Mo  Mo52  1  7.92803806  7.89507974  7.96176931  1
