# generated using pymatgen
data_Mo
_symmetry_space_group_name_H-M   'P 1'
_cell_length_a   9.46603830
_cell_length_b   9.46603830
_cell_length_c   9.46603730
_cell_angle_alpha   90.00000000
_cell_angle_beta   90.00000000
_cell_angle_gamma   90.00000000
_symmetry_Int_Tables_number   1
_chemical_formula_structural   Mo
_chemical_formula_sum   Mo53
_cell_volume   848.21261229
_cell_formula_units_Z   53
loop_
 _symmetry_equiv_pos_site_id
 _symmetry_equiv_pos_as_xyz
  1  'x, y, z'
loop_
 _atom_site_type_symbol
 _atom_site_label
 _atom_site_symmetry_multiplicity
 _atom_site_fract_x
 _atom_site_fract_y
 _atom_site_fract_z
 _atom_site_occupancy
  Mo  Mo0  1  1.56789403  1.58558352  1.51523937  1
  Mo  Mo1  1  -0.01073783  0.01416328  3.13700908  1
  Mo  Mo2  1  1.55949088  1.60599951  4.71192153  1
  Mo  Mo3  1  0.02299690  0.00907688  6.28942781  1
  Mo  Mo4  1  1.54732816  1.60557813  7.88455698  1
  Mo  Mo5  1  0.01924382  3.17275638  0.01625528  1
  Mo  Mo6  1  1.67083059  4.74259530  1.52900432  1
  Mo  Mo7  1  -0.05813412  3.11788137  3.14809789  1
  Mo  Mo8  1  1.57190267  4.66740614  4.69824548  1
  Mo  Mo9  1  -0.04843786  3.11232188  6.32537902  1
  Mo  Mo10  1  1.59709935  4.72179213  7.89512892  1
  Mo  Mo11  1  -0.03028693  6.34757371  -0.02831441  1
  Mo  Mo12  1  1.56271637  7.91859850  1.55212263  1
  Mo  Mo13  1  -0.02223912  6.26898199  3.11612216  1
  Mo  Mo14  1  1.55642941  7.91433119  4.65951841  1
  Mo  Mo15  1  -0.02699580  6.28955216  6.24011366  1
  Mo  Mo16  1  1.57679589  7.87490049  7.84741365  1
  Mo  Mo17  1  3.12055074  -0.00692558  0.04129310  1
  Mo  Mo18  1  4.71869395  1.55881208  1.53013627  1
  Mo  Mo19  1  3.13386585  -0.01008576  3.23673673  1
  Mo  Mo20  1  4.69881702  1.61109490  4.68984679  1
  Mo  Mo21  1  3.17575318  -0.05286672  6.36491714  1
  Mo  Mo22  1  4.75193095  1.48170394  7.89749859  1
  Mo  Mo23  1  3.15535988  3.20748925  -0.02196151  1
  Mo  Mo24  1  4.80825153  4.73601062  1.54692694  1
  Mo  Mo25  1  3.17580257  3.16330181  3.15701315  1
  Mo  Mo26  1  4.69920133  4.83066808  4.75995560  1
  Mo  Mo27  1  3.14249490  3.16705472  6.34345977  1
  Mo  Mo28  1  4.76269663  4.68389945  7.90580295  1
  Mo  Mo29  1  3.15653917  6.30006313  -0.00463398  1
  Mo  Mo30  1  4.71594426  7.87784741  1.62116837  1
  Mo  Mo31  1  3.19163824  6.30120127  3.16961574  1
  Mo  Mo32  1  4.73510160  7.93961244  4.81660551  1
  Mo  Mo33  1  3.14239545  6.29183350  6.28259999  1
  Mo  Mo34  1  4.70510124  7.82927191  7.95714469  1
  Mo  Mo35  1  6.28899087  -0.03098156  -0.03889898  1
  Mo  Mo36  1  7.92072798  1.56734855  1.54229536  1
  Mo  Mo37  1  6.28560034  -0.01249662  3.16954407  1
  Mo  Mo38  1  7.91365350  1.61064346  4.72789273  1
  Mo  Mo39  1  6.34717546  0.00326445  6.30822729  1
  Mo  Mo40  1  7.93982973  1.57465502  7.94236215  1
  Mo  Mo41  1  6.30335278  3.15689349  -0.02869702  1
  Mo  Mo42  1  7.96893782  4.74143478  1.57610621  1
  Mo  Mo43  1  6.25995073  3.18607197  3.17320583  1
  Mo  Mo44  1  7.89386126  4.67955001  4.74896198  1
  Mo  Mo45  1  6.26265882  3.14346948  6.33274202  1
  Mo  Mo46  1  7.90751232  4.74666151  7.94361878  1
  Mo  Mo47  1  6.31095527  6.33842740  -0.04760724  1
  Mo  Mo48  1  7.88332094  7.95429369  1.65602884  1
  Mo  Mo49  1  6.29836588  6.30485971  3.19133972  1
  Mo  Mo50  1  7.92964341  7.92431009  4.71998125  1
  Mo  Mo51  1  6.35623936  6.29410250  6.30623647  1
  Mo  Mo52  1  7.86905015  7.92426972  7.93114865  1
