# generated using pymatgen
data_Mo
_symmetry_space_group_name_H-M   'P 1'
_cell_length_a   9.46603830
_cell_length_b   9.46603830
_cell_length_c   9.46603730
_cell_angle_alpha   90.00000000
_cell_angle_beta   90.00000000
_cell_angle_gamma   90.00000000
_symmetry_Int_Tables_number   1
_chemical_formula_structural   Mo
_chemical_formula_sum   Mo53
_cell_volume   848.21261229
_cell_formula_units_Z   53
loop_
 _symmetry_equiv_pos_site_id
 _symmetry_equiv_pos_as_xyz
  1  'x, y, z'
loop_
 _atom_site_type_symbol
 _atom_site_label
 _atom_site_symmetry_multiplicity
 _atom_site_fract_x
 _atom_site_fract_y
 _atom_site_fract_z
 _atom_site_occupancy
  Mo  Mo0  1  1.64475884  1.50575787  1.50729186  1
  Mo  Mo1  1  -0.00024116  -0.01593431  3.03841127  1
  Mo  Mo2  1  1.67734485  1.54888285  4.69051944  1
  Mo  Mo3  1  0.00893090  0.01595920  6.31003387  1
  Mo  Mo4  1  1.65532589  1.53308684  7.92046923  1
  Mo  Mo5  1  0.00399384  3.05500502  -0.02664174  1
  Mo  Mo6  1  1.54750711  4.77018820  1.56508369  1
  Mo  Mo7  1  -0.05910830  3.16225698  3.12949435  1
  Mo  Mo8  1  1.51618556  4.67749868  4.73481650  1
  Mo  Mo9  1  0.01545787  3.17018066  6.33934278  1
  Mo  Mo10  1  1.59770963  4.75924336  7.90511879  1
  Mo  Mo11  1  -0.00429930  6.35503066  -0.00399200  1
  Mo  Mo12  1  1.53734331  7.85231145  1.61601078  1
  Mo  Mo13  1  -0.05393287  6.28617684  3.13244387  1
  Mo  Mo14  1  1.57218345  7.85971690  4.71356270  1
  Mo  Mo15  1  -0.00592860  6.32463420  6.28693743  1
  Mo  Mo16  1  1.53522293  7.87110305  7.87220805  1
  Mo  Mo17  1  3.06894362  -0.06661766  -0.00839762  1
  Mo  Mo18  1  4.72587503  1.61922498  1.55639393  1
  Mo  Mo19  1  3.11853084  0.03674249  3.12245850  1
  Mo  Mo20  1  4.77268772  1.58809627  4.77645372  1
  Mo  Mo21  1  3.13052404  -0.01504064  6.27815025  1
  Mo  Mo22  1  4.69933901  1.53034081  7.88772974  1
  Mo  Mo23  1  3.15813415  3.10807102  0.01144675  1
  Mo  Mo24  1  4.73209297  4.76100133  1.55709876  1
  Mo  Mo25  1  3.19310368  3.17897141  3.17875366  1
  Mo  Mo26  1  4.75809321  4.77890783  4.74804502  1
  Mo  Mo27  1  3.15076455  3.14825982  6.33947686  1
  Mo  Mo28  1  4.75402102  4.77392841  7.93898538  1
  Mo  Mo29  1  3.16106057  6.30266215  -0.04909151  1
  Mo  Mo30  1  4.68725963  7.96388649  1.55185862  1
  Mo  Mo31  1  3.12894004  6.29976962  3.18293539  1
  Mo  Mo32  1  4.75793335  7.95765745  4.71684569  1
  Mo  Mo33  1  3.17826247  6.28415449  6.29963532  1
  Mo  Mo34  1  4.72482921  7.85811726  7.85516495  1
  Mo  Mo35  1  6.33977044  -0.08756578  -0.04677944  1
  Mo  Mo36  1  7.90930784  1.60299125  1.53302703  1
  Mo  Mo37  1  6.28323919  0.04305006  3.13544070  1
  Mo  Mo38  1  7.94886654  1.53534447  4.76741542  1
  Mo  Mo39  1  6.26284973  0.00736139  6.32339103  1
  Mo  Mo40  1  7.90469678  1.60409087  7.97397451  1
  Mo  Mo41  1  6.25138303  3.14443312  -0.01343604  1
  Mo  Mo42  1  7.90040272  4.76669703  1.60429297  1
  Mo  Mo43  1  6.28789495  3.17422646  3.13062039  1
  Mo  Mo44  1  7.87896184  4.70623249  4.80828879  1
  Mo  Mo45  1  6.28837725  3.12071893  6.35126865  1
  Mo  Mo46  1  7.91830893  4.76913045  7.92916973  1
  Mo  Mo47  1  6.34967379  6.33097767  0.01124715  1
  Mo  Mo48  1  7.84124921  7.92198902  1.61561207  1
  Mo  Mo49  1  6.27956441  6.33746035  3.23738953  1
  Mo  Mo50  1  7.90396063  7.92660469  4.73206079  1
  Mo  Mo51  1  6.32277680  6.28470323  6.34310798  1
  Mo  Mo52  1  8.02572846  7.95817892  7.87471005  1
