# generated using pymatgen
data_Mo
_symmetry_space_group_name_H-M   'P 1'
_cell_length_a   9.44236900
_cell_length_b   9.44236900
_cell_length_c   9.44236900
_cell_angle_alpha   90.00000000
_cell_angle_beta   90.00000000
_cell_angle_gamma   90.00000000
_symmetry_Int_Tables_number   1
_chemical_formula_structural   Mo
_chemical_formula_sum   Mo53
_cell_volume   841.86587335
_cell_formula_units_Z   53
loop_
 _symmetry_equiv_pos_site_id
 _symmetry_equiv_pos_as_xyz
  1  'x, y, z'
loop_
 _atom_site_type_symbol
 _atom_site_label
 _atom_site_symmetry_multiplicity
 _atom_site_fract_x
 _atom_site_fract_y
 _atom_site_fract_z
 _atom_site_occupancy
  Mo  Mo0  1  1.55863454  1.55245943  1.59092280  1
  Mo  Mo1  1  -0.01863688  0.06141541  3.04737457  1
  Mo  Mo2  1  1.61607388  1.57364292  4.77238308  1
  Mo  Mo3  1  -0.00305141  0.00308779  6.30150407  1
  Mo  Mo4  1  1.59026486  1.46867348  7.94766726  1
  Mo  Mo5  1  -0.02156578  3.09765183  -0.01318071  1
  Mo  Mo6  1  1.59213072  4.76554573  1.58151412  1
  Mo  Mo7  1  -0.05306131  3.20794817  3.19412749  1
  Mo  Mo8  1  1.56673854  4.74014697  4.75049314  1
  Mo  Mo9  1  -0.03959137  3.14082578  6.33525788  1
  Mo  Mo10  1  1.55084003  4.67889246  7.87905896  1
  Mo  Mo11  1  0.04972620  6.34626010  -0.01930840  1
  Mo  Mo12  1  1.53708863  7.90541392  1.57784103  1
  Mo  Mo13  1  0.00011293  6.30807815  3.11693024  1
  Mo  Mo14  1  1.56585805  7.83469561  4.75140314  1
  Mo  Mo15  1  -0.05228142  6.26769473  6.23739693  1
  Mo  Mo16  1  1.54474927  7.82135325  7.86442490  1
  Mo  Mo17  1  3.11886660  -0.03372820  -0.03033706  1
  Mo  Mo18  1  4.68314177  1.50803655  1.60868231  1
  Mo  Mo19  1  3.15441161  -0.02169576  3.12490195  1
  Mo  Mo20  1  4.76232437  1.55903934  4.74167281  1
  Mo  Mo21  1  3.14985878  0.01668901  6.21623417  1
  Mo  Mo22  1  4.70028586  1.54588363  7.88215413  1
  Mo  Mo23  1  3.11444321  3.20096534  0.01951946  1
  Mo  Mo24  1  4.70810803  4.65167501  1.61996577  1
  Mo  Mo25  1  3.16327968  3.18111668  3.23465641  1
  Mo  Mo26  1  4.72862776  4.77150653  4.81846181  1
  Mo  Mo27  1  3.16151359  3.13724499  6.29827376  1
  Mo  Mo28  1  4.71042766  4.65582487  7.94464235  1
  Mo  Mo29  1  3.14021664  6.29509794  0.02629916  1
  Mo  Mo30  1  4.68237475  7.81474540  1.52631051  1
  Mo  Mo31  1  3.25667953  6.28056165  3.15291683  1
  Mo  Mo32  1  4.73636141  7.89408303  4.75391795  1
  Mo  Mo33  1  3.15714532  6.27426413  6.33751766  1
  Mo  Mo34  1  4.75336416  7.84717642  7.86116393  1
  Mo  Mo35  1  6.33341155  -0.00354096  0.01062745  1
  Mo  Mo36  1  7.91690537  1.58646824  1.56827637  1
  Mo  Mo37  1  6.31481851  -0.02190014  3.15363047  1
  Mo  Mo38  1  7.90148882  1.68258769  4.75187653  1
  Mo  Mo39  1  6.30553304  0.01788257  6.27238723  1
  Mo  Mo40  1  7.94692770  1.54039925  7.86157790  1
  Mo  Mo41  1  6.24628894  3.09387782  0.02549846  1
  Mo  Mo42  1  7.83206843  4.74500698  1.47576940  1
  Mo  Mo43  1  6.26926105  3.12180830  3.13921748  1
  Mo  Mo44  1  7.88163321  4.79936131  4.68034314  1
  Mo  Mo45  1  6.27455596  3.18256723  6.26804564  1
  Mo  Mo46  1  7.83948444  4.73511558  7.77968722  1
  Mo  Mo47  1  6.28597695  6.27382732  -0.01475018  1
  Mo  Mo48  1  7.92729194  7.93951449  1.47920758  1
  Mo  Mo49  1  6.24743804  6.26475937  3.09977917  1
  Mo  Mo50  1  7.83460015  7.90945823  4.70599339  1
  Mo  Mo51  1  6.28249388  6.30237946  6.27598326  1
  Mo  Mo52  1  7.94766912  7.93146725  7.86739244  1
