# generated using pymatgen
data_Mo
_symmetry_space_group_name_H-M   'P 1'
_cell_length_a   5.14550427
_cell_length_b   5.06760303
_cell_length_c   5.07259351
_cell_angle_alpha   89.04675840
_cell_angle_beta   89.49732136
_cell_angle_gamma   88.86993169
_symmetry_Int_Tables_number   1
_chemical_formula_structural   Mo
_chemical_formula_sum   Mo8
_cell_volume   132.22102130
_cell_formula_units_Z   8
loop_
 _symmetry_equiv_pos_site_id
 _symmetry_equiv_pos_as_xyz
  1  'x, y, z'
loop_
 _atom_site_type_symbol
 _atom_site_label
 _atom_site_symmetry_multiplicity
 _atom_site_fract_x
 _atom_site_fract_y
 _atom_site_fract_z
 _atom_site_occupancy
  Mo  Mo0  1  0.00000000  0.00000000  0.00000000  1
  Mo  Mo1  1  2.62240558  2.56860746  2.56567803  1
  Mo  Mo2  1  1.31400175  2.54480051  0.02947511  1
  Mo  Mo3  1  3.88665426  2.56744293  0.02954109  1
  Mo  Mo4  1  0.03591534  1.27922539  2.55089099  1
  Mo  Mo5  1  0.06359084  3.81270470  2.58033311  1
  Mo  Mo6  1  2.58369129  0.02888529  1.26815094  1
  Mo  Mo7  1  2.60576888  0.04137104  3.80432087  1
