# generated using pymatgen
data_Mo
_symmetry_space_group_name_H-M   'P 1'
_cell_length_a   5.15870735
_cell_length_b   5.05232308
_cell_length_c   5.01587232
_cell_angle_alpha   90.94802696
_cell_angle_beta   90.72911107
_cell_angle_gamma   88.68130337
_symmetry_Int_Tables_number   1
_chemical_formula_structural   Mo
_chemical_formula_sum   Mo8
_cell_volume   130.66848986
_cell_formula_units_Z   8
loop_
 _symmetry_equiv_pos_site_id
 _symmetry_equiv_pos_as_xyz
  1  'x, y, z'
loop_
 _atom_site_type_symbol
 _atom_site_label
 _atom_site_symmetry_multiplicity
 _atom_site_fract_x
 _atom_site_fract_y
 _atom_site_fract_z
 _atom_site_occupancy
  Mo  Mo0  1  0.00000000  0.00000000  0.00000000  1
  Mo  Mo1  1  2.59606706  2.53645458  2.46510918  1
  Mo  Mo2  1  1.33047436  2.53437438  -0.03868084  1
  Mo  Mo3  1  3.90975571  2.55193577  -0.04672463  1
  Mo  Mo4  1  -0.00363113  1.25609636  2.49048244  1
  Mo  Mo5  1  0.03720255  3.78169005  2.45582348  1
  Mo  Mo6  1  2.56725736  0.01421114  1.24586217  1
  Mo  Mo7  1  2.54320939  0.00751065  3.75367408  1
