# generated using pymatgen
data_Mo
_symmetry_space_group_name_H-M   'P 1'
_cell_length_a   5.10951505
_cell_length_b   5.14988456
_cell_length_c   5.02941060
_cell_angle_alpha   91.32677588
_cell_angle_beta   89.30368714
_cell_angle_gamma   90.29273041
_symmetry_Int_Tables_number   1
_chemical_formula_structural   Mo
_chemical_formula_sum   Mo8
_cell_volume   132.29416277
_cell_formula_units_Z   8
loop_
 _symmetry_equiv_pos_site_id
 _symmetry_equiv_pos_as_xyz
  1  'x, y, z'
loop_
 _atom_site_type_symbol
 _atom_site_label
 _atom_site_symmetry_multiplicity
 _atom_site_fract_x
 _atom_site_fract_y
 _atom_site_fract_z
 _atom_site_occupancy
  Mo  Mo0  1  0.00000000  0.00000000  0.00000000  1
  Mo  Mo1  1  2.60729629  2.51615000  2.47808796  1
  Mo  Mo2  1  1.29099400  2.56139557  -0.03165596  1
  Mo  Mo3  1  3.84559610  2.53466229  -0.04056959  1
  Mo  Mo4  1  0.04584771  1.25550218  2.50060116  1
  Mo  Mo5  1  0.05954066  3.83026440  2.47340201  1
  Mo  Mo6  1  2.57410272  -0.04267275  1.24818675  1
  Mo  Mo7  1  2.61310397  -0.07455167  3.76238750  1
