# generated using pymatgen
data_Mo
_symmetry_space_group_name_H-M   'P 1'
_cell_length_a   5.07426166
_cell_length_b   5.13099612
_cell_length_c   4.99459706
_cell_angle_alpha   90.00687595
_cell_angle_beta   89.78514719
_cell_angle_gamma   89.38514368
_symmetry_Int_Tables_number   1
_chemical_formula_structural   Mo
_chemical_formula_sum   Mo8
_cell_volume   130.03101004
_cell_formula_units_Z   8
loop_
 _symmetry_equiv_pos_site_id
 _symmetry_equiv_pos_as_xyz
  1  'x, y, z'
loop_
 _atom_site_type_symbol
 _atom_site_label
 _atom_site_symmetry_multiplicity
 _atom_site_fract_x
 _atom_site_fract_y
 _atom_site_fract_z
 _atom_site_occupancy
  Mo  Mo0  1  0.00000000  0.00000000  0.00000000  1
  Mo  Mo1  1  2.53721332  2.60674218  2.49167302  1
  Mo  Mo2  1  1.27993731  2.57340171  -0.01584821  1
  Mo  Mo3  1  3.81693202  2.58952809  0.00490348  1
  Mo  Mo4  1  -0.00550137  1.30794654  2.48403336  1
  Mo  Mo5  1  0.00593859  3.87328506  2.45780931  1
  Mo  Mo6  1  2.53138404  0.02876502  1.26932438  1
  Mo  Mo7  1  2.52016270  0.05404230  3.76646978  1
