# generated using pymatgen
data_Mo
_symmetry_space_group_name_H-M   'P 1'
_cell_length_a   5.01922727
_cell_length_b   5.15463822
_cell_length_c   5.09077579
_cell_angle_alpha   89.62632240
_cell_angle_beta   90.54077366
_cell_angle_gamma   88.62743959
_symmetry_Int_Tables_number   1
_chemical_formula_structural   Mo
_chemical_formula_sum   Mo8
_cell_volume   131.66342694
_cell_formula_units_Z   8
loop_
 _symmetry_equiv_pos_site_id
 _symmetry_equiv_pos_as_xyz
  1  'x, y, z'
loop_
 _atom_site_type_symbol
 _atom_site_label
 _atom_site_symmetry_multiplicity
 _atom_site_fract_x
 _atom_site_fract_y
 _atom_site_fract_z
 _atom_site_occupancy
  Mo  Mo0  1  0.00000000  0.00000000  0.00000000  1
  Mo  Mo1  1  2.53022800  2.62815005  2.52692742  1
  Mo  Mo2  1  1.29403906  2.58790878  -0.01540752  1
  Mo  Mo3  1  3.80355134  2.60974845  -0.02104020  1
  Mo  Mo4  1  0.00107426  1.31781592  2.53885570  1
  Mo  Mo5  1  0.04035718  3.89480488  2.52626452  1
  Mo  Mo6  1  2.50022868  0.03650037  1.26694296  1
  Mo  Mo7  1  2.48166147  0.06582181  3.81209424  1
