# generated using pymatgen
data_Mo
_symmetry_space_group_name_H-M   'P 1'
_cell_length_a   9.44236900
_cell_length_b   9.44236900
_cell_length_c   9.44236900
_cell_angle_alpha   90.00000000
_cell_angle_beta   90.00000000
_cell_angle_gamma   90.00000000
_symmetry_Int_Tables_number   1
_chemical_formula_structural   Mo
_chemical_formula_sum   Mo53
_cell_volume   841.86587335
_cell_formula_units_Z   53
loop_
 _symmetry_equiv_pos_site_id
 _symmetry_equiv_pos_as_xyz
  1  'x, y, z'
loop_
 _atom_site_type_symbol
 _atom_site_label
 _atom_site_symmetry_multiplicity
 _atom_site_fract_x
 _atom_site_fract_y
 _atom_site_fract_z
 _atom_site_occupancy
  Mo  Mo0  1  1.54976298  1.53783786  1.50882943  1
  Mo  Mo1  1  0.01309078  -0.03397540  3.14578101  1
  Mo  Mo2  1  1.49621903  1.45785520  4.68541078  1
  Mo  Mo3  1  -0.00954816  -0.04172504  6.32772970  1
  Mo  Mo4  1  1.50168433  1.51786104  7.82244474  1
  Mo  Mo5  1  0.00710956  3.13482325  0.03543971  1
  Mo  Mo6  1  1.50868480  4.68399954  1.60143571  1
  Mo  Mo7  1  0.05453404  3.09992544  3.13575205  1
  Mo  Mo8  1  1.53244757  4.65803498  4.77086407  1
  Mo  Mo9  1  -0.00752930  3.10283833  6.29555330  1
  Mo  Mo10  1  1.56204500  4.66870542  7.93747520  1
  Mo  Mo11  1  0.01974712  6.31962616  -0.03226010  1
  Mo  Mo12  1  1.56603715  7.88192556  1.50074014  1
  Mo  Mo13  1  0.00872460  6.30696053  3.11976007  1
  Mo  Mo14  1  1.48341579  7.82505886  4.68169251  1
  Mo  Mo15  1  0.00195447  6.24570400  6.32432289  1
  Mo  Mo16  1  1.59259476  7.85929301  7.85430724  1
  Mo  Mo17  1  3.13078335  0.03183307  -0.00249401  1
  Mo  Mo18  1  4.71825542  1.59142587  1.49810422  1
  Mo  Mo19  1  3.17061056  0.01617777  3.11493123  1
  Mo  Mo20  1  4.65300805  1.57181466  4.70575747  1
  Mo  Mo21  1  3.15365953  -0.01543021  6.30536810  1
  Mo  Mo22  1  4.74943460  1.55947614  7.85586608  1
  Mo  Mo23  1  3.16525578  3.10338674  -0.00007129  1
  Mo  Mo24  1  4.72099933  4.79878230  1.54313925  1
  Mo  Mo25  1  3.12720901  3.12131525  3.13611463  1
  Mo  Mo26  1  4.70654497  4.71877310  4.68276740  1
  Mo  Mo27  1  3.12297069  3.12749665  6.35872363  1
  Mo  Mo28  1  4.70862601  4.77204438  7.86301784  1
  Mo  Mo29  1  3.20615880  6.30674927  0.00905696  1
  Mo  Mo30  1  4.79456618  7.95382932  1.60884927  1
  Mo  Mo31  1  3.07544024  6.32206666  3.18815545  1
  Mo  Mo32  1  4.71054143  7.87516227  4.68538775  1
  Mo  Mo33  1  3.14054392  6.30210515  6.26920909  1
  Mo  Mo34  1  4.75811069  7.93719825  7.91625818  1
  Mo  Mo35  1  6.32877773  0.02009181  0.01153188  1
  Mo  Mo36  1  7.82484320  1.63272143  1.53591396  1
  Mo  Mo37  1  6.26442121  0.03128207  3.16128593  1
  Mo  Mo38  1  7.89472680  1.48797785  4.69010573  1
  Mo  Mo39  1  6.27034769  0.01492229  6.36044659  1
  Mo  Mo40  1  7.90620572  1.57698609  7.89951146  1
  Mo  Mo41  1  6.28409810  3.18727477  0.01153619  1
  Mo  Mo42  1  7.93760213  4.74672331  1.57034266  1
  Mo  Mo43  1  6.27156036  3.20283381  3.17787009  1
  Mo  Mo44  1  7.83049780  4.70174807  4.70577861  1
  Mo  Mo45  1  6.30505995  3.15032754  6.36384100  1
  Mo  Mo46  1  7.95441452  4.70811311  7.88397033  1
  Mo  Mo47  1  6.33833125  6.31146283  0.01763648  1
  Mo  Mo48  1  7.93668769  7.89710306  1.54367718  1
  Mo  Mo49  1  6.33994228  6.34976166  3.17589081  1
  Mo  Mo50  1  7.89774094  7.90204755  4.67582818  1
  Mo  Mo51  1  6.28708894  6.32379812  6.30155866  1
  Mo  Mo52  1  7.88726792  7.88918162  7.91316193  1
