# generated using pymatgen
data_Mo
_symmetry_space_group_name_H-M   'P 1'
_cell_length_a   5.12396936
_cell_length_b   5.11222834
_cell_length_c   5.00356652
_cell_angle_alpha   89.83228097
_cell_angle_beta   90.17061103
_cell_angle_gamma   89.78248829
_symmetry_Int_Tables_number   1
_chemical_formula_structural   Mo
_chemical_formula_sum   Mo8
_cell_volume   131.06583980
_cell_formula_units_Z   8
loop_
 _symmetry_equiv_pos_site_id
 _symmetry_equiv_pos_as_xyz
  1  'x, y, z'
loop_
 _atom_site_type_symbol
 _atom_site_label
 _atom_site_symmetry_multiplicity
 _atom_site_fract_x
 _atom_site_fract_y
 _atom_site_fract_z
 _atom_site_occupancy
  Mo  Mo0  1  0.00000000  0.00000000  0.00000000  1
  Mo  Mo1  1  2.56351827  2.52959742  2.53671130  1
  Mo  Mo2  1  1.28364996  2.55935425  0.03834650  1
  Mo  Mo3  1  3.84561666  2.56651241  0.03195430  1
  Mo  Mo4  1  0.00021827  1.24455168  2.52233220  1
  Mo  Mo5  1  0.00288487  3.80032686  2.56387480  1
  Mo  Mo6  1  2.56140918  -0.00950980  1.24438826  1
  Mo  Mo7  1  2.56029415  -0.04284571  3.74594915  1
