# generated using pymatgen
data_Mo
_symmetry_space_group_name_H-M   'P 1'
_cell_length_a   5.08228404
_cell_length_b   5.08566136
_cell_length_c   5.12882427
_cell_angle_alpha   89.82212992
_cell_angle_beta   91.07095817
_cell_angle_gamma   90.14652196
_symmetry_Int_Tables_number   1
_chemical_formula_structural   Mo
_chemical_formula_sum   Mo8
_cell_volume   132.53936008
_cell_formula_units_Z   8
loop_
 _symmetry_equiv_pos_site_id
 _symmetry_equiv_pos_as_xyz
  1  'x, y, z'
loop_
 _atom_site_type_symbol
 _atom_site_label
 _atom_site_symmetry_multiplicity
 _atom_site_fract_x
 _atom_site_fract_y
 _atom_site_fract_z
 _atom_site_occupancy
  Mo  Mo0  1  0.00000000  0.00000000  0.00000000  1
  Mo  Mo1  1  2.54372354  2.54072743  2.51746229  1
  Mo  Mo2  1  1.29982002  2.52447449  -0.03620211  1
  Mo  Mo3  1  3.84062064  2.48836473  -0.05696478  1
  Mo  Mo4  1  -0.01178693  1.30557250  2.55113534  1
  Mo  Mo5  1  0.01763278  3.84810188  2.52531457  1
  Mo  Mo6  1  2.52755223  -0.01895586  1.26126019  1
  Mo  Mo7  1  2.50105544  0.01535196  3.82530592  1
