# generated using pymatgen
data_Mo
_symmetry_space_group_name_H-M   'P 1'
_cell_length_a   5.12656477
_cell_length_b   5.08040360
_cell_length_c   5.13524296
_cell_angle_alpha   90.52279995
_cell_angle_beta   91.38243770
_cell_angle_gamma   89.91580211
_symmetry_Int_Tables_number   1
_chemical_formula_structural   Mo
_chemical_formula_sum   Mo8
_cell_volume   133.70289567
_cell_formula_units_Z   8
loop_
 _symmetry_equiv_pos_site_id
 _symmetry_equiv_pos_as_xyz
  1  'x, y, z'
loop_
 _atom_site_type_symbol
 _atom_site_label
 _atom_site_symmetry_multiplicity
 _atom_site_fract_x
 _atom_site_fract_y
 _atom_site_fract_z
 _atom_site_occupancy
  Mo  Mo0  1  0.00000000  0.00000000  0.00000000  1
  Mo  Mo1  1  2.55733450  2.47233324  2.55849054  1
  Mo  Mo2  1  1.31190385  2.52659556  0.00458025  1
  Mo  Mo3  1  3.87491234  2.49987042  -0.02168371  1
  Mo  Mo4  1  -0.02087379  1.22907932  2.57589838  1
  Mo  Mo5  1  0.00952581  3.76903746  2.59361061  1
  Mo  Mo6  1  2.54497170  -0.04717502  1.25725718  1
  Mo  Mo7  1  2.50889811  -0.08807477  3.82429943  1
