# generated using pymatgen
data_Mo
_symmetry_space_group_name_H-M   'P 1'
_cell_length_a   5.00785470
_cell_length_b   5.00177438
_cell_length_c   5.11627181
_cell_angle_alpha   89.81799597
_cell_angle_beta   89.78841245
_cell_angle_gamma   90.45130948
_symmetry_Int_Tables_number   1
_chemical_formula_structural   Mo
_chemical_formula_sum   Mo8
_cell_volume   128.14768371
_cell_formula_units_Z   8
loop_
 _symmetry_equiv_pos_site_id
 _symmetry_equiv_pos_as_xyz
  1  'x, y, z'
loop_
 _atom_site_type_symbol
 _atom_site_label
 _atom_site_symmetry_multiplicity
 _atom_site_fract_x
 _atom_site_fract_y
 _atom_site_fract_z
 _atom_site_occupancy
  Mo  Mo0  1  0.00000000  0.00000000  0.00000000  1
  Mo  Mo1  1  2.46259277  2.52913379  2.56837923  1
  Mo  Mo2  1  1.22318290  2.50526420  -0.00035979  1
  Mo  Mo3  1  3.72700203  2.51439716  0.02105318  1
  Mo  Mo4  1  -0.02686303  1.26965196  2.55249940  1
  Mo  Mo5  1  -0.05558969  3.77034968  2.54143312  1
  Mo  Mo6  1  2.49756929  0.01878452  1.30042924  1
  Mo  Mo7  1  2.48506959  0.03808762  3.85846177  1
