# generated using pymatgen
data_Mo
_symmetry_space_group_name_H-M   'P 1'
_cell_length_a   5.12613520
_cell_length_b   5.00958395
_cell_length_c   5.12013345
_cell_angle_alpha   90.83202050
_cell_angle_beta   89.63315645
_cell_angle_gamma   89.81198163
_symmetry_Int_Tables_number   1
_chemical_formula_structural   Mo
_chemical_formula_sum   Mo8
_cell_volume   131.46672007
_cell_formula_units_Z   8
loop_
 _symmetry_equiv_pos_site_id
 _symmetry_equiv_pos_as_xyz
  1  'x, y, z'
loop_
 _atom_site_type_symbol
 _atom_site_label
 _atom_site_symmetry_multiplicity
 _atom_site_fract_x
 _atom_site_fract_y
 _atom_site_fract_z
 _atom_site_occupancy
  Mo  Mo0  1  0.00000000  0.00000000  0.00000000  1
  Mo  Mo1  1  2.58549529  2.49025183  2.53988729  1
  Mo  Mo2  1  1.28278308  2.50829339  -0.01763050  1
  Mo  Mo3  1  3.84583647  2.51538983  -0.02237097  1
  Mo  Mo4  1  0.02181370  1.23078281  2.55225789  1
  Mo  Mo5  1  0.02307009  3.73552799  2.53699760  1
  Mo  Mo6  1  2.57364615  -0.00369845  1.27520356  1
  Mo  Mo7  1  2.59483166  -0.02528822  3.83509158  1
