# generated using pymatgen
data_Mo
_symmetry_space_group_name_H-M   'P 1'
_cell_length_a   5.12959879
_cell_length_b   5.01645709
_cell_length_c   5.15868387
_cell_angle_alpha   89.95174393
_cell_angle_beta   89.93861064
_cell_angle_gamma   91.10036146
_symmetry_Int_Tables_number   1
_chemical_formula_structural   Mo
_chemical_formula_sum   Mo8
_cell_volume   132.72077490
_cell_formula_units_Z   8
loop_
 _symmetry_equiv_pos_site_id
 _symmetry_equiv_pos_as_xyz
  1  'x, y, z'
loop_
 _atom_site_type_symbol
 _atom_site_label
 _atom_site_symmetry_multiplicity
 _atom_site_fract_x
 _atom_site_fract_y
 _atom_site_fract_z
 _atom_site_occupancy
  Mo  Mo0  1  0.00000000  0.00000000  0.00000000  1
  Mo  Mo1  1  2.59491101  2.45479592  2.55750261  1
  Mo  Mo2  1  1.27149861  2.48907738  -0.00219391  1
  Mo  Mo3  1  3.83572479  2.45093622  -0.04073370  1
  Mo  Mo4  1  0.03599208  1.23886309  2.58750442  1
  Mo  Mo5  1  0.02537760  3.74701105  2.60458039  1
  Mo  Mo6  1  2.58487584  -0.04574660  1.25094343  1
  Mo  Mo7  1  2.62617516  -0.06095748  3.82990984  1
