# generated using pymatgen
data_Mo
_symmetry_space_group_name_H-M   'P 1'
_cell_length_a   5.05745954
_cell_length_b   5.15331444
_cell_length_c   5.02523033
_cell_angle_alpha   88.64644875
_cell_angle_beta   90.29670934
_cell_angle_gamma   90.31667687
_symmetry_Int_Tables_number   1
_chemical_formula_structural   Mo
_chemical_formula_sum   Mo8
_cell_volume   130.93075222
_cell_formula_units_Z   8
loop_
 _symmetry_equiv_pos_site_id
 _symmetry_equiv_pos_as_xyz
  1  'x, y, z'
loop_
 _atom_site_type_symbol
 _atom_site_label
 _atom_site_symmetry_multiplicity
 _atom_site_fract_x
 _atom_site_fract_y
 _atom_site_fract_z
 _atom_site_occupancy
  Mo  Mo0  1  0.00000000  0.00000000  0.00000000  1
  Mo  Mo1  1  2.55733899  2.59510196  2.49807234  1
  Mo  Mo2  1  1.26905338  2.56734357  0.00438025  1
  Mo  Mo3  1  3.79744435  2.54892925  -0.03269104  1
  Mo  Mo4  1  0.02651907  1.32524091  2.52368568  1
  Mo  Mo5  1  0.03137697  3.90179165  2.54660157  1
  Mo  Mo6  1  2.54043603  0.00006845  1.21904258  1
  Mo  Mo7  1  2.56452615  0.03703400  3.73127031  1
