# generated using pymatgen
data_Mo
_symmetry_space_group_name_H-M   'P 1'
_cell_length_a   5.02153295
_cell_length_b   5.03908407
_cell_length_c   5.04134180
_cell_angle_alpha   90.45897947
_cell_angle_beta   91.17894429
_cell_angle_gamma   91.15784837
_symmetry_Int_Tables_number   1
_chemical_formula_structural   Mo
_chemical_formula_sum   Mo8
_cell_volume   127.50816746
_cell_formula_units_Z   8
loop_
 _symmetry_equiv_pos_site_id
 _symmetry_equiv_pos_as_xyz
  1  'x, y, z'
loop_
 _atom_site_type_symbol
 _atom_site_label
 _atom_site_symmetry_multiplicity
 _atom_site_fract_x
 _atom_site_fract_y
 _atom_site_fract_z
 _atom_site_occupancy
  Mo  Mo0  1  0.00000000  0.00000000  0.00000000  1
  Mo  Mo1  1  2.43972183  2.51733351  2.46956960  1
  Mo  Mo2  1  1.21705454  2.51263224  -0.04132985  1
  Mo  Mo3  1  3.72771577  2.49979546  -0.06040042  1
  Mo  Mo4  1  -0.05180137  1.27064497  2.50453745  1
  Mo  Mo5  1  -0.09007745  3.78969562  2.47274289  1
  Mo  Mo6  1  2.49432956  -0.00727695  1.24114680  1
  Mo  Mo7  1  2.46166623  0.00384269  3.76158153  1
