# generated using pymatgen
data_Mo
_symmetry_space_group_name_H-M   'P 1'
_cell_length_a   5.12106877
_cell_length_b   5.12465411
_cell_length_c   5.02752839
_cell_angle_alpha   89.10551355
_cell_angle_beta   88.94865216
_cell_angle_gamma   91.00945508
_symmetry_Int_Tables_number   1
_chemical_formula_structural   Mo
_chemical_formula_sum   Mo8
_cell_volume   131.88153522
_cell_formula_units_Z   8
loop_
 _symmetry_equiv_pos_site_id
 _symmetry_equiv_pos_as_xyz
  1  'x, y, z'
loop_
 _atom_site_type_symbol
 _atom_site_label
 _atom_site_symmetry_multiplicity
 _atom_site_fract_x
 _atom_site_fract_y
 _atom_site_fract_z
 _atom_site_occupancy
  Mo  Mo0  1  0.00000000  0.00000000  0.00000000  1
  Mo  Mo1  1  2.56893131  2.55972823  2.54860441  1
  Mo  Mo2  1  1.24891855  2.55503456  0.03191212  1
  Mo  Mo3  1  3.80940695  2.54115277  0.03845135  1
  Mo  Mo4  1  0.02410573  1.29262230  2.52774392  1
  Mo  Mo5  1  -0.00721993  3.85459776  2.55638643  1
  Mo  Mo6  1  2.58037268  -0.00806451  1.26325057  1
  Mo  Mo7  1  2.62014124  0.00357007  3.77667323  1
