# generated using pymatgen
data_Mo
_symmetry_space_group_name_H-M   'P 1'
_cell_length_a   5.02805263
_cell_length_b   5.09882170
_cell_length_c   4.99707398
_cell_angle_alpha   90.56032030
_cell_angle_beta   90.33366580
_cell_angle_gamma   90.97912939
_symmetry_Int_Tables_number   1
_chemical_formula_structural   Mo
_chemical_formula_sum   Mo8
_cell_volume   128.08357392
_cell_formula_units_Z   8
loop_
 _symmetry_equiv_pos_site_id
 _symmetry_equiv_pos_as_xyz
  1  'x, y, z'
loop_
 _atom_site_type_symbol
 _atom_site_label
 _atom_site_symmetry_multiplicity
 _atom_site_fract_x
 _atom_site_fract_y
 _atom_site_fract_z
 _atom_site_occupancy
  Mo  Mo0  1  0.00000000  0.00000000  0.00000000  1
  Mo  Mo1  1  2.48770592  2.52255367  2.46855488  1
  Mo  Mo2  1  1.23381253  2.53912921  -0.02416771  1
  Mo  Mo3  1  3.74773072  2.51890838  -0.03577602  1
  Mo  Mo4  1  -0.01463899  1.26815470  2.48934496  1
  Mo  Mo5  1  -0.03778555  3.81739432  2.47098140  1
  Mo  Mo6  1  2.51238534  -0.02345340  1.23765507  1
  Mo  Mo7  1  2.50931963  -0.02991851  3.73618181  1
