# generated using pymatgen
data_Mo
_symmetry_space_group_name_H-M   'P 1'
_cell_length_a   5.03622508
_cell_length_b   5.13454612
_cell_length_c   5.07744990
_cell_angle_alpha   91.13959385
_cell_angle_beta   89.78488351
_cell_angle_gamma   90.09415106
_symmetry_Int_Tables_number   1
_chemical_formula_structural   Mo
_chemical_formula_sum   Mo8
_cell_volume   131.26934950
_cell_formula_units_Z   8
loop_
 _symmetry_equiv_pos_site_id
 _symmetry_equiv_pos_as_xyz
  1  'x, y, z'
loop_
 _atom_site_type_symbol
 _atom_site_label
 _atom_site_symmetry_multiplicity
 _atom_site_fract_x
 _atom_site_fract_y
 _atom_site_fract_z
 _atom_site_occupancy
  Mo  Mo0  1  0.00000000  0.00000000  0.00000000  1
  Mo  Mo1  1  2.54657627  2.53312500  2.49852789  1
  Mo  Mo2  1  1.25524289  2.56691370  -0.02845947  1
  Mo  Mo3  1  3.77325375  2.56631503  -0.05108114  1
  Mo  Mo4  1  0.03044668  1.25011716  2.52972387  1
  Mo  Mo5  1  0.02668415  3.81733018  2.51257523  1
  Mo  Mo6  1  2.53417482  -0.01734335  1.24652744  1
  Mo  Mo7  1  2.56650277  -0.05083272  3.78482563  1
