# generated using pymatgen
data_Mo
_symmetry_space_group_name_H-M   'P 1'
_cell_length_a   5.07261529
_cell_length_b   5.11462504
_cell_length_c   5.12890281
_cell_angle_alpha   90.36172474
_cell_angle_beta   90.50987997
_cell_angle_gamma   88.99429781
_symmetry_Int_Tables_number   1
_chemical_formula_structural   Mo
_chemical_formula_sum   Mo8
_cell_volume   133.03865871
_cell_formula_units_Z   8
loop_
 _symmetry_equiv_pos_site_id
 _symmetry_equiv_pos_as_xyz
  1  'x, y, z'
loop_
 _atom_site_type_symbol
 _atom_site_label
 _atom_site_symmetry_multiplicity
 _atom_site_fract_x
 _atom_site_fract_y
 _atom_site_fract_z
 _atom_site_occupancy
  Mo  Mo0  1  0.00000000  0.00000000  0.00000000  1
  Mo  Mo1  1  2.56981758  2.60480363  2.48782449  1
  Mo  Mo2  1  1.28515441  2.57041931  -0.05681741  1
  Mo  Mo3  1  3.82101462  2.59728854  -0.09615608  1
  Mo  Mo4  1  0.02534522  1.29944205  2.54573720  1
  Mo  Mo5  1  0.04256952  3.85642673  2.50858914  1
  Mo  Mo6  1  2.54422675  0.03734409  1.24281693  1
  Mo  Mo7  1  2.56095981  0.05829380  3.80712818  1
