# generated using pymatgen
data_Mo
_symmetry_space_group_name_H-M   'P 1'
_cell_length_a   5.04499427
_cell_length_b   5.01411891
_cell_length_c   5.03357852
_cell_angle_alpha   89.96260791
_cell_angle_beta   89.81201124
_cell_angle_gamma   90.50252028
_symmetry_Int_Tables_number   1
_chemical_formula_structural   Mo
_chemical_formula_sum   Mo8
_cell_volume   127.32480268
_cell_formula_units_Z   8
loop_
 _symmetry_equiv_pos_site_id
 _symmetry_equiv_pos_as_xyz
  1  'x, y, z'
loop_
 _atom_site_type_symbol
 _atom_site_label
 _atom_site_symmetry_multiplicity
 _atom_site_fract_x
 _atom_site_fract_y
 _atom_site_fract_z
 _atom_site_occupancy
  Mo  Mo0  1  0.00000000  0.00000000  0.00000000  1
  Mo  Mo1  1  2.55644255  2.51365690  2.46326257  1
  Mo  Mo2  1  1.25417176  2.49926748  -0.03667538  1
  Mo  Mo3  1  3.77640816  2.48386648  -0.06951116  1
  Mo  Mo4  1  0.03767937  1.27557392  2.50622709  1
  Mo  Mo5  1  0.03073293  3.78254190  2.48596962  1
  Mo  Mo6  1  2.54281269  -0.00435605  1.22534214  1
  Mo  Mo7  1  2.58396529  0.01773388  3.74169796  1
