# generated using pymatgen
data_Mo
_symmetry_space_group_name_H-M   'P 1'
_cell_length_a   5.12791719
_cell_length_b   5.04663859
_cell_length_c   5.01504467
_cell_angle_alpha   91.34425849
_cell_angle_beta   89.82323778
_cell_angle_gamma   90.23213939
_symmetry_Int_Tables_number   1
_chemical_formula_structural   Mo
_chemical_formula_sum   Mo8
_cell_volume   129.74569749
_cell_formula_units_Z   8
loop_
 _symmetry_equiv_pos_site_id
 _symmetry_equiv_pos_as_xyz
  1  'x, y, z'
loop_
 _atom_site_type_symbol
 _atom_site_label
 _atom_site_symmetry_multiplicity
 _atom_site_fract_x
 _atom_site_fract_y
 _atom_site_fract_z
 _atom_site_occupancy
  Mo  Mo0  1  0.00000000  0.00000000  0.00000000  1
  Mo  Mo1  1  2.55048571  2.48588175  2.49689409  1
  Mo  Mo2  1  1.27902244  2.51954607  -0.01969519  1
  Mo  Mo3  1  3.84290388  2.51233547  -0.00115718  1
  Mo  Mo4  1  -0.01193658  1.23151667  2.49283818  1
  Mo  Mo5  1  -0.01485486  3.75466804  2.46387399  1
  Mo  Mo6  1  2.55864271  -0.02224011  1.27219814  1
  Mo  Mo7  1  2.54816527  -0.05229912  3.77951841  1
