# generated using pymatgen
data_Mo
_symmetry_space_group_name_H-M   'P 1'
_cell_length_a   5.15237363
_cell_length_b   5.15278796
_cell_length_c   5.13559313
_cell_angle_alpha   90.09703458
_cell_angle_beta   90.00880481
_cell_angle_gamma   89.83568710
_symmetry_Int_Tables_number   1
_chemical_formula_structural   Mo
_chemical_formula_sum   Mo8
_cell_volume   136.34456066
_cell_formula_units_Z   8
loop_
 _symmetry_equiv_pos_site_id
 _symmetry_equiv_pos_as_xyz
  1  'x, y, z'
loop_
 _atom_site_type_symbol
 _atom_site_label
 _atom_site_symmetry_multiplicity
 _atom_site_fract_x
 _atom_site_fract_y
 _atom_site_fract_z
 _atom_site_occupancy
  Mo  Mo0  1  0.00000000  0.00000000  0.00000000  1
  Mo  Mo1  1  2.57830720  2.59418275  2.55035271  1
  Mo  Mo2  1  1.26464155  2.59165749  -0.00425558  1
  Mo  Mo3  1  3.84051286  2.62242501  -0.03030993  1
  Mo  Mo4  1  0.01408294  1.27527837  2.57202126  1
  Mo  Mo5  1  -0.00921117  3.85155212  2.58079286  1
  Mo  Mo6  1  2.58873631  0.02433826  1.25776337  1
  Mo  Mo7  1  2.61446631  0.01147976  3.82539883  1
