# generated using pymatgen
data_Mo
_symmetry_space_group_name_H-M   'P 1'
_cell_length_a   5.11045124
_cell_length_b   5.03091654
_cell_length_c   4.99977699
_cell_angle_alpha   89.61567843
_cell_angle_beta   89.33145712
_cell_angle_gamma   88.15327903
_symmetry_Int_Tables_number   1
_chemical_formula_structural   Mo
_chemical_formula_sum   Mo8
_cell_volume   128.46744607
_cell_formula_units_Z   8
loop_
 _symmetry_equiv_pos_site_id
 _symmetry_equiv_pos_as_xyz
  1  'x, y, z'
loop_
 _atom_site_type_symbol
 _atom_site_label
 _atom_site_symmetry_multiplicity
 _atom_site_fract_x
 _atom_site_fract_y
 _atom_site_fract_z
 _atom_site_occupancy
  Mo  Mo0  1  0.00000000  0.00000000  0.00000000  1
  Mo  Mo1  1  2.62580414  2.54597034  2.52527826  1
  Mo  Mo2  1  1.31871319  2.53521020  0.02574488  1
  Mo  Mo3  1  3.87361864  2.57565775  0.02542187  1
  Mo  Mo4  1  0.05026846  1.24802958  2.51264808  1
  Mo  Mo5  1  0.09152892  3.76301601  2.53855445  1
  Mo  Mo6  1  2.56972457  0.03571573  1.24952444  1
  Mo  Mo7  1  2.59936279  0.02625209  3.74921932  1
