# generated using pymatgen
data_Mo
_symmetry_space_group_name_H-M   'P 1'
_cell_length_a   5.10407760
_cell_length_b   5.15271389
_cell_length_c   5.12341151
_cell_angle_alpha   90.50378032
_cell_angle_beta   90.71761007
_cell_angle_gamma   90.51201626
_symmetry_Int_Tables_number   1
_chemical_formula_structural   Mo
_chemical_formula_sum   Mo8
_cell_volume   134.72367120
_cell_formula_units_Z   8
loop_
 _symmetry_equiv_pos_site_id
 _symmetry_equiv_pos_as_xyz
  1  'x, y, z'
loop_
 _atom_site_type_symbol
 _atom_site_label
 _atom_site_symmetry_multiplicity
 _atom_site_fract_x
 _atom_site_fract_y
 _atom_site_fract_z
 _atom_site_occupancy
  Mo  Mo0  1  0.00000000  0.00000000  0.00000000  1
  Mo  Mo1  1  2.51310013  2.56553035  2.53335902  1
  Mo  Mo2  1  1.24825110  2.57849484  -0.01785088  1
  Mo  Mo3  1  3.80020057  2.58309036  -0.03870332  1
  Mo  Mo4  1  -0.02498752  1.27283628  2.55792380  1
  Mo  Mo5  1  -0.05271115  3.84903336  2.55049913  1
  Mo  Mo6  1  2.54638662  -0.00303560  1.25996563  1
  Mo  Mo7  1  2.53526092  -0.01829787  3.82160175  1
