# generated using pymatgen
data_Mo
_symmetry_space_group_name_H-M   'P 1'
_cell_length_a   5.04222340
_cell_length_b   5.06923673
_cell_length_c   5.12493369
_cell_angle_alpha   89.64638461
_cell_angle_beta   89.32277035
_cell_angle_gamma   89.40719900
_symmetry_Int_Tables_number   1
_chemical_formula_structural   Mo
_chemical_formula_sum   Mo8
_cell_volume   130.97589509
_cell_formula_units_Z   8
loop_
 _symmetry_equiv_pos_site_id
 _symmetry_equiv_pos_as_xyz
  1  'x, y, z'
loop_
 _atom_site_type_symbol
 _atom_site_label
 _atom_site_symmetry_multiplicity
 _atom_site_fract_x
 _atom_site_fract_y
 _atom_site_fract_z
 _atom_site_occupancy
  Mo  Mo0  1  0.00000000  0.00000000  0.00000000  1
  Mo  Mo1  1  2.54576279  2.57753592  2.56652309  1
  Mo  Mo2  1  1.25283546  2.55142660  0.00541934  1
  Mo  Mo3  1  3.77372146  2.58508289  0.00313859  1
  Mo  Mo4  1  0.02868055  1.27658041  2.56552399  1
  Mo  Mo5  1  0.02107300  3.81117887  2.57208369  1
  Mo  Mo6  1  2.53712817  0.03829687  1.27884132  1
  Mo  Mo7  1  2.56961250  0.04757806  3.84108544  1
