# generated using pymatgen
data_Mo
_symmetry_space_group_name_H-M   'P 1'
_cell_length_a   5.09322333
_cell_length_b   5.03085024
_cell_length_c   5.07067962
_cell_angle_alpha   88.33156012
_cell_angle_beta   91.41025023
_cell_angle_gamma   89.14007369
_symmetry_Int_Tables_number   1
_chemical_formula_structural   Mo
_chemical_formula_sum   Mo8
_cell_volume   129.81676380
_cell_formula_units_Z   8
loop_
 _symmetry_equiv_pos_site_id
 _symmetry_equiv_pos_as_xyz
  1  'x, y, z'
loop_
 _atom_site_type_symbol
 _atom_site_label
 _atom_site_symmetry_multiplicity
 _atom_site_fract_x
 _atom_site_fract_y
 _atom_site_fract_z
 _atom_site_occupancy
  Mo  Mo0  1  0.00000000  0.00000000  0.00000000  1
  Mo  Mo1  1  2.53187547  2.56487799  2.54899800  1
  Mo  Mo2  1  1.29917315  2.52117374  0.02533224  1
  Mo  Mo3  1  3.84565887  2.53346517  0.00318893  1
  Mo  Mo4  1  -0.02757540  1.29507254  2.55293936  1
  Mo  Mo5  1  -0.00164512  3.81010056  2.58934325  1
  Mo  Mo6  1  2.52621546  0.03107071  1.24522540  1
  Mo  Mo7  1  2.48567491  0.06862924  3.77996282  1
