# generated using pymatgen
data_Mo
_symmetry_space_group_name_H-M   'P 1'
_cell_length_a   5.09915950
_cell_length_b   5.14687992
_cell_length_c   4.99369604
_cell_angle_alpha   89.51148213
_cell_angle_beta   88.72958429
_cell_angle_gamma   89.57268885
_symmetry_Int_Tables_number   1
_chemical_formula_structural   Mo
_chemical_formula_sum   Mo8
_cell_volume   131.01792105
_cell_formula_units_Z   8
loop_
 _symmetry_equiv_pos_site_id
 _symmetry_equiv_pos_as_xyz
  1  'x, y, z'
loop_
 _atom_site_type_symbol
 _atom_site_label
 _atom_site_symmetry_multiplicity
 _atom_site_fract_x
 _atom_site_fract_y
 _atom_site_fract_z
 _atom_site_occupancy
  Mo  Mo0  1  0.00000000  0.00000000  0.00000000  1
  Mo  Mo1  1  2.62131187  2.54236640  2.55186424  1
  Mo  Mo2  1  1.31378952  2.56293872  0.04378914  1
  Mo  Mo3  1  3.86318767  2.54293613  0.06671958  1
  Mo  Mo4  1  0.05236849  1.27589898  2.51277184  1
  Mo  Mo5  1  0.09145892  3.84883900  2.54509575  1
  Mo  Mo6  1  2.56580980  -0.02528810  1.27123540  1
  Mo  Mo7  1  2.59863307  -0.03585914  3.76784528  1
