# generated using pymatgen
data_Mo
_symmetry_space_group_name_H-M   'P 1'
_cell_length_a   5.01824691
_cell_length_b   5.14536686
_cell_length_c   5.13266346
_cell_angle_alpha   89.23376684
_cell_angle_beta   88.98560724
_cell_angle_gamma   89.51852766
_symmetry_Int_Tables_number   1
_chemical_formula_structural   Mo
_chemical_formula_sum   Mo8
_cell_volume   132.49203360
_cell_formula_units_Z   8
loop_
 _symmetry_equiv_pos_site_id
 _symmetry_equiv_pos_as_xyz
  1  'x, y, z'
loop_
 _atom_site_type_symbol
 _atom_site_label
 _atom_site_symmetry_multiplicity
 _atom_site_fract_x
 _atom_site_fract_y
 _atom_site_fract_z
 _atom_site_occupancy
  Mo  Mo0  1  0.00000000  0.00000000  0.00000000  1
  Mo  Mo1  1  2.51481523  2.60267076  2.62970281  1
  Mo  Mo2  1  1.25036328  2.58482736  0.04613470  1
  Mo  Mo3  1  3.75912843  2.60944551  0.08065889  1
  Mo  Mo4  1  0.00805974  1.29179347  2.58074231  1
  Mo  Mo5  1  0.00404045  3.86431174  2.60961492  1
  Mo  Mo6  1  2.51379983  0.02738533  1.31767720  1
  Mo  Mo7  1  2.52386921  0.03291966  3.88398321  1
