# generated using pymatgen
data_Mo
_symmetry_space_group_name_H-M   'P 1'
_cell_length_a   5.14195577
_cell_length_b   5.01860516
_cell_length_c   5.11971208
_cell_angle_alpha   90.84427751
_cell_angle_beta   90.86330696
_cell_angle_gamma   90.79012035
_symmetry_Int_Tables_number   1
_chemical_formula_structural   Mo
_chemical_formula_sum   Mo8
_cell_volume   132.07414112
_cell_formula_units_Z   8
loop_
 _symmetry_equiv_pos_site_id
 _symmetry_equiv_pos_as_xyz
  1  'x, y, z'
loop_
 _atom_site_type_symbol
 _atom_site_label
 _atom_site_symmetry_multiplicity
 _atom_site_fract_x
 _atom_site_fract_y
 _atom_site_fract_z
 _atom_site_occupancy
  Mo  Mo0  1  0.00000000  0.00000000  0.00000000  1
  Mo  Mo1  1  2.56784000  2.43919878  2.51999045  1
  Mo  Mo2  1  1.28598013  2.49116472  -0.02172527  1
  Mo  Mo3  1  3.85645247  2.45489499  -0.05755433  1
  Mo  Mo4  1  -0.00300433  1.22081872  2.55772488  1
  Mo  Mo5  1  -0.00226037  3.73011830  2.55391414  1
  Mo  Mo6  1  2.56878419  -0.05318526  1.24398605  1
  Mo  Mo7  1  2.56540789  -0.08701633  3.80361631  1
