# generated using pymatgen
data_Mo
_symmetry_space_group_name_H-M   'P 1'
_cell_length_a   5.07451924
_cell_length_b   5.10434425
_cell_length_c   5.14681651
_cell_angle_alpha   90.50927833
_cell_angle_beta   88.39511005
_cell_angle_gamma   88.59021761
_symmetry_Int_Tables_number   1
_chemical_formula_structural   Mo
_chemical_formula_sum   Mo8
_cell_volume   133.21456887
_cell_formula_units_Z   8
loop_
 _symmetry_equiv_pos_site_id
 _symmetry_equiv_pos_as_xyz
  1  'x, y, z'
loop_
 _atom_site_type_symbol
 _atom_site_label
 _atom_site_symmetry_multiplicity
 _atom_site_fract_x
 _atom_site_fract_y
 _atom_site_fract_z
 _atom_site_occupancy
  Mo  Mo0  1  0.00000000  0.00000000  0.00000000  1
  Mo  Mo1  1  2.59460438  2.57274281  2.60582745  1
  Mo  Mo2  1  1.29471114  2.57019174  0.01256861  1
  Mo  Mo3  1  3.83139236  2.60652566  0.05275144  1
  Mo  Mo4  1  0.04473790  1.26039651  2.56940602  1
  Mo  Mo5  1  0.07110845  3.81242130  2.56188322  1
  Mo  Mo6  1  2.55245753  0.02852597  1.32676654  1
  Mo  Mo7  1  2.58401016  0.01291008  3.89993397  1
