# generated using pymatgen
data_Mo
_symmetry_space_group_name_H-M   'P 1'
_cell_length_a   5.08253883
_cell_length_b   5.15725309
_cell_length_c   5.01526205
_cell_angle_alpha   90.14364628
_cell_angle_beta   90.00215265
_cell_angle_gamma   90.05342260
_symmetry_Int_Tables_number   1
_chemical_formula_structural   Mo
_chemical_formula_sum   Mo8
_cell_volume   131.45927311
_cell_formula_units_Z   8
loop_
 _symmetry_equiv_pos_site_id
 _symmetry_equiv_pos_as_xyz
  1  'x, y, z'
loop_
 _atom_site_type_symbol
 _atom_site_label
 _atom_site_symmetry_multiplicity
 _atom_site_fract_x
 _atom_site_fract_y
 _atom_site_fract_z
 _atom_site_occupancy
  Mo  Mo0  1  0.00000000  0.00000000  0.00000000  1
  Mo  Mo1  1  2.57020793  2.53462265  2.51399599  1
  Mo  Mo2  1  1.29577444  2.56488076  0.00852393  1
  Mo  Mo3  1  3.83689481  2.53767954  0.00432263  1
  Mo  Mo4  1  0.01648044  1.27258318  2.51288500  1
  Mo  Mo5  1  0.04169471  3.85106456  2.52350958  1
  Mo  Mo6  1  2.54305702  -0.03552998  1.24958506  1
  Mo  Mo7  1  2.54693032  -0.05218749  3.75715777  1
