# generated using pymatgen
data_Mo
_symmetry_space_group_name_H-M   'P 1'
_cell_length_a   5.01869420
_cell_length_b   5.08653714
_cell_length_c   5.10782248
_cell_angle_alpha   90.99987219
_cell_angle_beta   90.47855927
_cell_angle_gamma   88.23602937
_symmetry_Int_Tables_number   1
_chemical_formula_structural   Mo
_chemical_formula_sum   Mo8
_cell_volume   130.30572029
_cell_formula_units_Z   8
loop_
 _symmetry_equiv_pos_site_id
 _symmetry_equiv_pos_as_xyz
  1  'x, y, z'
loop_
 _atom_site_type_symbol
 _atom_site_label
 _atom_site_symmetry_multiplicity
 _atom_site_fract_x
 _atom_site_fract_y
 _atom_site_fract_z
 _atom_site_occupancy
  Mo  Mo0  1  0.00000000  0.00000000  0.00000000  1
  Mo  Mo1  1  2.54939763  2.56758987  2.50094250  1
  Mo  Mo2  1  1.29439800  2.56156510  -0.04229968  1
  Mo  Mo3  1  3.80337300  2.59917874  -0.06357372  1
  Mo  Mo4  1  0.02046739  1.25859709  2.53804787  1
  Mo  Mo5  1  0.06037789  3.80135536  2.50638522  1
  Mo  Mo6  1  2.50923105  0.03122262  1.25566556  1
  Mo  Mo7  1  2.50974318  0.01844057  3.80954476  1
