# generated using pymatgen
data_Mo
_symmetry_space_group_name_H-M   'P 1'
_cell_length_a   5.14885676
_cell_length_b   5.01783738
_cell_length_c   5.05713434
_cell_angle_alpha   91.46339729
_cell_angle_beta   89.92982352
_cell_angle_gamma   90.47457721
_symmetry_Int_Tables_number   1
_chemical_formula_structural   Mo
_chemical_formula_sum   Mo8
_cell_volume   130.60959751
_cell_formula_units_Z   8
loop_
 _symmetry_equiv_pos_site_id
 _symmetry_equiv_pos_as_xyz
  1  'x, y, z'
loop_
 _atom_site_type_symbol
 _atom_site_label
 _atom_site_symmetry_multiplicity
 _atom_site_fract_x
 _atom_site_fract_y
 _atom_site_fract_z
 _atom_site_occupancy
  Mo  Mo0  1  0.00000000  0.00000000  0.00000000  1
  Mo  Mo1  1  2.61057482  2.44408597  2.47230024  1
  Mo  Mo2  1  1.29971238  2.49134428  -0.04522865  1
  Mo  Mo3  1  3.87381833  2.45673322  -0.06672619  1
  Mo  Mo4  1  0.03013917  1.22437212  2.51103771  1
  Mo  Mo5  1  0.04279858  3.73302193  2.47655782  1
  Mo  Mo6  1  2.58601067  -0.04958745  1.24264129  1
  Mo  Mo7  1  2.60982014  -0.07954023  3.77091894  1
