# generated using pymatgen
data_Mo
_symmetry_space_group_name_H-M   'P 1'
_cell_length_a   5.13847603
_cell_length_b   5.06541937
_cell_length_c   5.09377984
_cell_angle_alpha   88.97789480
_cell_angle_beta   90.07024220
_cell_angle_gamma   90.84532948
_symmetry_Int_Tables_number   1
_chemical_formula_structural   Mo
_chemical_formula_sum   Mo8
_cell_volume   132.54804713
_cell_formula_units_Z   8
loop_
 _symmetry_equiv_pos_site_id
 _symmetry_equiv_pos_as_xyz
  1  'x, y, z'
loop_
 _atom_site_type_symbol
 _atom_site_label
 _atom_site_symmetry_multiplicity
 _atom_site_fract_x
 _atom_site_fract_y
 _atom_site_fract_z
 _atom_site_occupancy
  Mo  Mo0  1  0.00000000  0.00000000  0.00000000  1
  Mo  Mo1  1  2.53838869  2.50593909  2.60790853  1
  Mo  Mo2  1  1.28137742  2.51486527  0.04886279  1
  Mo  Mo3  1  3.85025674  2.47970746  0.07349922  1
  Mo  Mo4  1  -0.02895950  1.27487481  2.56499981  1
  Mo  Mo5  1  -0.03202174  3.80731898  2.60154438  1
  Mo  Mo6  1  2.55516512  -0.03083144  1.29800019  1
  Mo  Mo7  1  2.52773674  -0.02217871  3.84472771  1
