# generated using pymatgen
data_Mo
_symmetry_space_group_name_H-M   'P 1'
_cell_length_a   5.01014966
_cell_length_b   5.03597686
_cell_length_c   5.13155694
_cell_angle_alpha   89.39673568
_cell_angle_beta   90.64041871
_cell_angle_gamma   88.86661015
_symmetry_Int_Tables_number   1
_chemical_formula_structural   Mo
_chemical_formula_sum   Mo8
_cell_volume   129.43340133
_cell_formula_units_Z   8
loop_
 _symmetry_equiv_pos_site_id
 _symmetry_equiv_pos_as_xyz
  1  'x, y, z'
loop_
 _atom_site_type_symbol
 _atom_site_label
 _atom_site_symmetry_multiplicity
 _atom_site_fract_x
 _atom_site_fract_y
 _atom_site_fract_z
 _atom_site_occupancy
  Mo  Mo0  1  0.00000000  0.00000000  0.00000000  1
  Mo  Mo1  1  2.51985852  2.52909888  2.58742240  1
  Mo  Mo2  1  1.29183643  2.52279125  0.02380189  1
  Mo  Mo3  1  3.79688599  2.53327595  0.01972041  1
  Mo  Mo4  1  -0.00484687  1.25983973  2.57858257  1
  Mo  Mo5  1  0.03446477  3.77738864  2.60442519  1
  Mo  Mo6  1  2.49279822  0.01101734  1.27874915  1
  Mo  Mo7  1  2.46829552  0.01208261  3.84441040  1
