# generated using pymatgen
data_Mo
_symmetry_space_group_name_H-M   'P 1'
_cell_length_a   5.14877675
_cell_length_b   5.05021399
_cell_length_c   5.13795710
_cell_angle_alpha   89.26208440
_cell_angle_beta   89.65770807
_cell_angle_gamma   89.54957173
_symmetry_Int_Tables_number   1
_chemical_formula_structural   Mo
_chemical_formula_sum   Mo8
_cell_volume   133.58182857
_cell_formula_units_Z   8
loop_
 _symmetry_equiv_pos_site_id
 _symmetry_equiv_pos_as_xyz
  1  'x, y, z'
loop_
 _atom_site_type_symbol
 _atom_site_label
 _atom_site_symmetry_multiplicity
 _atom_site_fract_x
 _atom_site_fract_y
 _atom_site_fract_z
 _atom_site_occupancy
  Mo  Mo0  1  0.00000000  0.00000000  0.00000000  1
  Mo  Mo1  1  2.56269872  2.55297254  2.62040306  1
  Mo  Mo2  1  1.27818885  2.53940344  0.04244266  1
  Mo  Mo3  1  3.85235041  2.56847102  0.06040929  1
  Mo  Mo4  1  -0.00701688  1.26147014  2.58570675  1
  Mo  Mo5  1  -0.01590882  3.78633978  2.61916609  1
  Mo  Mo6  1  2.57287611  0.02858524  1.30245518  1
  Mo  Mo7  1  2.57030520  0.02762056  3.87143226  1
