# generated using pymatgen
data_Mo
_symmetry_space_group_name_H-M   'P 1'
_cell_length_a   5.02251437
_cell_length_b   5.05173752
_cell_length_c   5.08493205
_cell_angle_alpha   90.05293246
_cell_angle_beta   90.68008397
_cell_angle_gamma   90.40124087
_symmetry_Int_Tables_number   1
_chemical_formula_structural   Mo
_chemical_formula_sum   Mo8
_cell_volume   129.00473623
_cell_formula_units_Z   8
loop_
 _symmetry_equiv_pos_site_id
 _symmetry_equiv_pos_as_xyz
  1  'x, y, z'
loop_
 _atom_site_type_symbol
 _atom_site_label
 _atom_site_symmetry_multiplicity
 _atom_site_fract_x
 _atom_site_fract_y
 _atom_site_fract_z
 _atom_site_occupancy
  Mo  Mo0  1  0.00000000  0.00000000  0.00000000  1
  Mo  Mo1  1  2.50545626  2.48407853  2.53974963  1
  Mo  Mo2  1  1.24216077  2.52368078  0.01636518  1
  Mo  Mo3  1  3.75313385  2.51986447  -0.02121511  1
  Mo  Mo4  1  0.00114607  1.22510037  2.55975226  1
  Mo  Mo5  1  -0.01217970  3.75068932  2.59490759  1
  Mo  Mo6  1  2.51487755  -0.02266337  1.23350700  1
  Mo  Mo7  1  2.52268650  -0.06035747  3.77568160  1
