# generated using pymatgen
data_Mo
_symmetry_space_group_name_H-M   'P 1'
_cell_length_a   5.00005393
_cell_length_b   5.04191286
_cell_length_c   5.09470497
_cell_angle_alpha   89.72323749
_cell_angle_beta   90.75507543
_cell_angle_gamma   89.79284188
_symmetry_Int_Tables_number   1
_chemical_formula_structural   Mo
_chemical_formula_sum   Mo8
_cell_volume   128.42315742
_cell_formula_units_Z   8
loop_
 _symmetry_equiv_pos_site_id
 _symmetry_equiv_pos_as_xyz
  1  'x, y, z'
loop_
 _atom_site_type_symbol
 _atom_site_label
 _atom_site_symmetry_multiplicity
 _atom_site_fract_x
 _atom_site_fract_y
 _atom_site_fract_z
 _atom_site_occupancy
  Mo  Mo0  1  0.00000000  0.00000000  0.00000000  1
  Mo  Mo1  1  2.45918408  2.57361906  2.52250350  1
  Mo  Mo2  1  1.22001320  2.54006488  -0.01342701  1
  Mo  Mo3  1  3.71963937  2.57863575  -0.03614658  1
  Mo  Mo4  1  -0.02554215  1.27465847  2.54625668  1
  Mo  Mo5  1  -0.05534203  3.79543792  2.54418946  1
  Mo  Mo6  1  2.49430506  0.04570524  1.25092557  1
  Mo  Mo7  1  2.48366284  0.05997399  3.79821587  1
