# generated using pymatgen
data_Mo
_symmetry_space_group_name_H-M   'P 1'
_cell_length_a   5.12231692
_cell_length_b   5.15112309
_cell_length_c   5.00731626
_cell_angle_alpha   89.72454370
_cell_angle_beta   89.35137916
_cell_angle_gamma   89.79847541
_symmetry_Int_Tables_number   1
_chemical_formula_structural   Mo
_chemical_formula_sum   Mo8
_cell_volume   132.11068451
_cell_formula_units_Z   8
loop_
 _symmetry_equiv_pos_site_id
 _symmetry_equiv_pos_as_xyz
  1  'x, y, z'
loop_
 _atom_site_type_symbol
 _atom_site_label
 _atom_site_symmetry_multiplicity
 _atom_site_fract_x
 _atom_site_fract_y
 _atom_site_fract_z
 _atom_site_occupancy
  Mo  Mo0  1  0.00000000  0.00000000  0.00000000  1
  Mo  Mo1  1  2.58692396  2.56875830  2.53460879  1
  Mo  Mo2  1  1.30783590  2.56630459  0.01573922  1
  Mo  Mo3  1  3.86874819  2.54808188  0.04621625  1
  Mo  Mo4  1  0.01232179  1.29927304  2.50388141  1
  Mo  Mo5  1  0.03970155  3.87468899  2.50438212  1
  Mo  Mo6  1  2.56022824  -0.01244019  1.28229255  1
  Mo  Mo7  1  2.55886016  -0.00087513  3.78592360  1
