# generated using pymatgen
data_Mo
_symmetry_space_group_name_H-M   'P 1'
_cell_length_a   4.99616181
_cell_length_b   5.10868826
_cell_length_c   5.01575908
_cell_angle_alpha   89.41253078
_cell_angle_beta   89.62362318
_cell_angle_gamma   89.84912197
_symmetry_Int_Tables_number   1
_chemical_formula_structural   Mo
_chemical_formula_sum   Mo8
_cell_volume   128.01148520
_cell_formula_units_Z   8
loop_
 _symmetry_equiv_pos_site_id
 _symmetry_equiv_pos_as_xyz
  1  'x, y, z'
loop_
 _atom_site_type_symbol
 _atom_site_label
 _atom_site_symmetry_multiplicity
 _atom_site_fract_x
 _atom_site_fract_y
 _atom_site_fract_z
 _atom_site_occupancy
  Mo  Mo0  1  0.00000000  0.00000000  0.00000000  1
  Mo  Mo1  1  2.54403251  2.53131332  2.53419998  1
  Mo  Mo2  1  1.28066871  2.54181549  0.02531233  1
  Mo  Mo3  1  3.77862924  2.51738183  0.02741223  1
  Mo  Mo4  1  0.03022777  1.27873082  2.51996890  1
  Mo  Mo5  1  0.06191622  3.83276314  2.54423128  1
  Mo  Mo6  1  2.50515230  -0.02357633  1.25601875  1
  Mo  Mo7  1  2.51953583  -0.02186169  3.76385646  1
