# generated using pymatgen
data_Mo
_symmetry_space_group_name_H-M   'P 1'
_cell_length_a   5.02525762
_cell_length_b   5.15695880
_cell_length_c   5.04975891
_cell_angle_alpha   90.83247287
_cell_angle_beta   90.99265468
_cell_angle_gamma   89.97918469
_symmetry_Int_Tables_number   1
_chemical_formula_structural   Mo
_chemical_formula_sum   Mo8
_cell_volume   130.83128601
_cell_formula_units_Z   8
loop_
 _symmetry_equiv_pos_site_id
 _symmetry_equiv_pos_as_xyz
  1  'x, y, z'
loop_
 _atom_site_type_symbol
 _atom_site_label
 _atom_site_symmetry_multiplicity
 _atom_site_fract_x
 _atom_site_fract_y
 _atom_site_fract_z
 _atom_site_occupancy
  Mo  Mo0  1  0.00000000  0.00000000  0.00000000  1
  Mo  Mo1  1  2.54409632  2.54067866  2.45053467  1
  Mo  Mo2  1  1.29542740  2.55889434  -0.05624214  1
  Mo  Mo3  1  3.80750822  2.52089047  -0.09242568  1
  Mo  Mo4  1  0.01232202  1.28973439  2.50579339  1
  Mo  Mo5  1  0.05170902  3.86763067  2.46764303  1
  Mo  Mo6  1  2.50839507  -0.03761075  1.22625074  1
  Mo  Mo7  1  2.50102358  -0.03682449  3.75111930  1
