# generated using pymatgen
data_Mo
_symmetry_space_group_name_H-M   'P 1'
_cell_length_a   5.14023890
_cell_length_b   5.09368996
_cell_length_c   5.07979597
_cell_angle_alpha   90.70050439
_cell_angle_beta   90.22674538
_cell_angle_gamma   89.90050551
_symmetry_Int_Tables_number   1
_chemical_formula_structural   Mo
_chemical_formula_sum   Mo8
_cell_volume   132.99202562
_cell_formula_units_Z   8
loop_
 _symmetry_equiv_pos_site_id
 _symmetry_equiv_pos_as_xyz
  1  'x, y, z'
loop_
 _atom_site_type_symbol
 _atom_site_label
 _atom_site_symmetry_multiplicity
 _atom_site_fract_x
 _atom_site_fract_y
 _atom_site_fract_z
 _atom_site_occupancy
  Mo  Mo0  1  0.00000000  0.00000000  0.00000000  1
  Mo  Mo1  1  2.56948285  2.58391467  2.46516802  1
  Mo  Mo2  1  1.25592033  2.56296988  -0.05489974  1
  Mo  Mo3  1  3.82552616  2.59603480  -0.09422685  1
  Mo  Mo4  1  0.01431832  1.27763104  2.52211323  1
  Mo  Mo5  1  -0.01456426  3.82406846  2.48687704  1
  Mo  Mo6  1  2.58398563  0.03527108  1.23053855  1
  Mo  Mo7  1  2.61274523  0.03968341  3.77026987  1
