# generated using pymatgen
data_Mo
_symmetry_space_group_name_H-M   'P 1'
_cell_length_a   9.44236900
_cell_length_b   9.44236900
_cell_length_c   9.44236900
_cell_angle_alpha   90.00000000
_cell_angle_beta   90.00000000
_cell_angle_gamma   90.00000000
_symmetry_Int_Tables_number   1
_chemical_formula_structural   Mo
_chemical_formula_sum   Mo53
_cell_volume   841.86587335
_cell_formula_units_Z   53
loop_
 _symmetry_equiv_pos_site_id
 _symmetry_equiv_pos_as_xyz
  1  'x, y, z'
loop_
 _atom_site_type_symbol
 _atom_site_label
 _atom_site_symmetry_multiplicity
 _atom_site_fract_x
 _atom_site_fract_y
 _atom_site_fract_z
 _atom_site_occupancy
  Mo  Mo0  1  1.51897825  1.47313575  1.49921422  1
  Mo  Mo1  1  0.00724051  -0.02569366  3.06582732  1
  Mo  Mo2  1  1.56048035  1.53845214  4.69042859  1
  Mo  Mo3  1  0.01823203  -0.02581313  6.39840907  1
  Mo  Mo4  1  1.49716217  1.51631114  7.95717299  1
  Mo  Mo5  1  -0.02506120  3.07658468  0.00039755  1
  Mo  Mo6  1  1.55458535  4.70770071  1.52682826  1
  Mo  Mo7  1  0.03758583  3.09402249  3.11797498  1
  Mo  Mo8  1  1.52788091  4.62177768  4.70771448  1
  Mo  Mo9  1  -0.02888853  3.07818953  6.31383580  1
  Mo  Mo10  1  1.55220798  4.66539210  7.90921707  1
  Mo  Mo11  1  0.02550916  6.39713220  -0.01597116  1
  Mo  Mo12  1  1.56624485  7.90170440  1.50157064  1
  Mo  Mo13  1  0.01042294  6.28665935  3.10775441  1
  Mo  Mo14  1  1.53629686  7.86645246  4.62801020  1
  Mo  Mo15  1  0.00369102  6.25484733  6.27359307  1
  Mo  Mo16  1  1.56417340  7.85497776  7.91213886  1
  Mo  Mo17  1  3.12555981  0.03222106  -0.00098757  1
  Mo  Mo18  1  4.77046293  1.61736255  1.61139236  1
  Mo  Mo19  1  3.20538246  0.07367299  3.05465413  1
  Mo  Mo20  1  4.70562720  1.59350991  4.68753890  1
  Mo  Mo21  1  3.12662737  0.02357421  6.29616109  1
  Mo  Mo22  1  4.67306659  1.62261025  7.88702724  1
  Mo  Mo23  1  3.18817802  3.12963491  -0.00235944  1
  Mo  Mo24  1  4.75542344  4.80017416  1.60360596  1
  Mo  Mo25  1  3.14194122  3.15254059  3.13452432  1
  Mo  Mo26  1  4.75405140  4.69401018  4.70628163  1
  Mo  Mo27  1  3.09075881  3.11639898  6.33363550  1
  Mo  Mo28  1  4.73662213  4.73440451  7.88886577  1
  Mo  Mo29  1  3.20714782  6.30005292  0.01139936  1
  Mo  Mo30  1  4.74893151  7.88380611  1.62772716  1
  Mo  Mo31  1  3.10652535  6.31585314  3.14471084  1
  Mo  Mo32  1  4.71066370  7.87453155  4.72804264  1
  Mo  Mo33  1  3.09611355  6.32582498  6.29213420  1
  Mo  Mo34  1  4.75124266  7.87527116  7.89768039  1
  Mo  Mo35  1  6.32377548  0.01589069  -0.05703210  1
  Mo  Mo36  1  7.85697776  1.60514742  1.61986345  1
  Mo  Mo37  1  6.27125211  0.03625667  3.07867703  1
  Mo  Mo38  1  7.89145104  1.52741542  4.72170411  1
  Mo  Mo39  1  6.20461638  -0.02311834  6.24913714  1
  Mo  Mo40  1  7.87430718  1.56831932  7.89332801  1
  Mo  Mo41  1  6.25973114  3.16332144  -0.00857962  1
  Mo  Mo42  1  7.91108571  4.76087239  1.61696605  1
  Mo  Mo43  1  6.32758714  3.18379265  3.17082817  1
  Mo  Mo44  1  7.91926592  4.70182057  4.76229131  1
  Mo  Mo45  1  6.24673484  3.11904788  6.33213298  1
  Mo  Mo46  1  7.94150892  4.68792938  7.90375358  1
  Mo  Mo47  1  6.27134121  6.33298415  0.01754445  1
  Mo  Mo48  1  7.84416908  7.91386380  1.56692872  1
  Mo  Mo49  1  6.31049645  6.33384481  3.20537426  1
  Mo  Mo50  1  7.93019126  7.88696251  4.68601386  1
  Mo  Mo51  1  6.32401306  6.33632772  6.33631334  1
  Mo  Mo52  1  7.92373481  7.85534673  7.86191179  1
