# generated using pymatgen
data_Mo
_symmetry_space_group_name_H-M   'P 1'
_cell_length_a   5.07944558
_cell_length_b   5.13250768
_cell_length_c   4.99441444
_cell_angle_alpha   91.27119583
_cell_angle_beta   89.54794806
_cell_angle_gamma   89.79297151
_symmetry_Int_Tables_number   1
_chemical_formula_structural   Mo
_chemical_formula_sum   Mo8
_cell_volume   130.16881864
_cell_formula_units_Z   8
loop_
 _symmetry_equiv_pos_site_id
 _symmetry_equiv_pos_as_xyz
  1  'x, y, z'
loop_
 _atom_site_type_symbol
 _atom_site_label
 _atom_site_symmetry_multiplicity
 _atom_site_fract_x
 _atom_site_fract_y
 _atom_site_fract_z
 _atom_site_occupancy
  Mo  Mo0  1  0.00000000  0.00000000  0.00000000  1
  Mo  Mo1  1  2.54464532  2.55992601  2.47109082  1
  Mo  Mo2  1  1.25444844  2.57826653  -0.02564419  1
  Mo  Mo3  1  3.79405428  2.60263601  -0.02604889  1
  Mo  Mo4  1  0.01271673  1.25251563  2.48421645  1
  Mo  Mo5  1  -0.00263775  3.81859741  2.45877461  1
  Mo  Mo6  1  2.54980282  0.00910686  1.24806399  1
  Mo  Mo7  1  2.57019679  -0.02141841  3.74500135  1
