# generated using pymatgen
data_Mo
_symmetry_space_group_name_H-M   'P 1'
_cell_length_a   5.00977043
_cell_length_b   5.10951376
_cell_length_c   5.02300635
_cell_angle_alpha   88.78139611
_cell_angle_beta   89.52120651
_cell_angle_gamma   90.93442880
_symmetry_Int_Tables_number   1
_chemical_formula_structural   Mo
_chemical_formula_sum   Mo8
_cell_volume   128.52531276
_cell_formula_units_Z   8
loop_
 _symmetry_equiv_pos_site_id
 _symmetry_equiv_pos_as_xyz
  1  'x, y, z'
loop_
 _atom_site_type_symbol
 _atom_site_label
 _atom_site_symmetry_multiplicity
 _atom_site_fract_x
 _atom_site_fract_y
 _atom_site_fract_z
 _atom_site_occupancy
  Mo  Mo0  1  0.00000000  0.00000000  0.00000000  1
  Mo  Mo1  1  2.49275476  2.56701665  2.54456441  1
  Mo  Mo2  1  1.22696916  2.54651083  0.02937108  1
  Mo  Mo3  1  3.73179130  2.53052631  0.03714600  1
  Mo  Mo4  1  0.00065357  1.30574962  2.52404768  1
  Mo  Mo5  1  -0.02478835  3.86025271  2.54953130  1
  Mo  Mo6  1  2.51150941  -0.00173547  1.26342785  1
  Mo  Mo7  1  2.52488394  0.02676261  3.77473372  1
