# generated using pymatgen
data_Mo
_symmetry_space_group_name_H-M   'P 1'
_cell_length_a   5.00111853
_cell_length_b   5.01958842
_cell_length_c   5.02570662
_cell_angle_alpha   89.77276321
_cell_angle_beta   88.71979607
_cell_angle_gamma   90.48120652
_symmetry_Int_Tables_number   1
_chemical_formula_structural   Mo
_chemical_formula_sum   Mo8
_cell_volume   126.12608200
_cell_formula_units_Z   8
loop_
 _symmetry_equiv_pos_site_id
 _symmetry_equiv_pos_as_xyz
  1  'x, y, z'
loop_
 _atom_site_type_symbol
 _atom_site_label
 _atom_site_symmetry_multiplicity
 _atom_site_fract_x
 _atom_site_fract_y
 _atom_site_fract_z
 _atom_site_occupancy
  Mo  Mo0  1  0.00000000  0.00000000  0.00000000  1
  Mo  Mo1  1  2.54627853  2.49058635  2.53083424  1
  Mo  Mo2  1  1.26452190  2.49208888  0.00593525  1
  Mo  Mo3  1  3.76471087  2.45677727  0.03052941  1
  Mo  Mo4  1  0.03887586  1.27102562  2.50942099  1
  Mo  Mo5  1  0.05330328  3.78077029  2.50305917  1
  Mo  Mo6  1  2.51602004  -0.02723497  1.28089511  1
  Mo  Mo7  1  2.54768219  -0.01108169  3.79349701  1
