# generated using pymatgen
data_Mo
_symmetry_space_group_name_H-M   'P 1'
_cell_length_a   5.01173922
_cell_length_b   5.01420341
_cell_length_c   5.10957069
_cell_angle_alpha   89.98946110
_cell_angle_beta   90.03816270
_cell_angle_gamma   89.82205787
_symmetry_Int_Tables_number   1
_chemical_formula_structural   Mo
_chemical_formula_sum   Mo8
_cell_volume   128.40224784
_cell_formula_units_Z   8
loop_
 _symmetry_equiv_pos_site_id
 _symmetry_equiv_pos_as_xyz
  1  'x, y, z'
loop_
 _atom_site_type_symbol
 _atom_site_label
 _atom_site_symmetry_multiplicity
 _atom_site_fract_x
 _atom_site_fract_y
 _atom_site_fract_z
 _atom_site_occupancy
  Mo  Mo0  1  0.00000000  0.00000000  0.00000000  1
  Mo  Mo1  1  2.53594214  2.51247209  2.52610406  1
  Mo  Mo2  1  1.24313963  2.51584129  -0.00789673  1
  Mo  Mo3  1  3.74861406  2.53341996  -0.04877962  1
  Mo  Mo4  1  0.03526651  1.24136745  2.56071458  1
  Mo  Mo5  1  0.02566892  3.74841940  2.57325929  1
  Mo  Mo6  1  2.52550708  0.01149940  1.23633823  1
  Mo  Mo7  1  2.56557237  -0.00065912  3.79078046  1
