# generated using pymatgen
data_Mo
_symmetry_space_group_name_H-M   'P 1'
_cell_length_a   4.90466924
_cell_length_b   4.88799510
_cell_length_c   4.85812425
_cell_angle_alpha   92.65912876
_cell_angle_beta   94.44953357
_cell_angle_gamma   92.55946893
_symmetry_Int_Tables_number   1
_chemical_formula_structural   Mo
_chemical_formula_sum   Mo8
_cell_volume   115.85636295
_cell_formula_units_Z   8
loop_
 _symmetry_equiv_pos_site_id
 _symmetry_equiv_pos_as_xyz
  1  'x, y, z'
loop_
 _atom_site_type_symbol
 _atom_site_label
 _atom_site_symmetry_multiplicity
 _atom_site_fract_x
 _atom_site_fract_y
 _atom_site_fract_z
 _atom_site_occupancy
  Mo  Mo0  1  0.00000000  0.00000000  0.00000000  1
  Mo  Mo1  1  2.23630035  2.38159018  2.28122330  1
  Mo  Mo2  1  1.01889862  2.48354285  -0.05313479  1
  Mo  Mo3  1  3.46270480  2.58008422  -0.23323516  1
  Mo  Mo4  1  -0.10600360  1.06741272  2.44286597  1
  Mo  Mo5  1  -0.30900808  3.50268488  2.47978136  1
  Mo  Mo6  1  2.44155551  0.02142970  1.03210378  1
  Mo  Mo7  1  2.43705414  -0.12879366  3.45651206  1
