# generated using pymatgen
data_Mo
_symmetry_space_group_name_H-M   'P 1'
_cell_length_a   5.46443057
_cell_length_b   5.40430823
_cell_length_c   4.73231090
_cell_angle_alpha   94.89296176
_cell_angle_beta   85.16447883
_cell_angle_gamma   88.38660206
_symmetry_Int_Tables_number   1
_chemical_formula_structural   Mo
_chemical_formula_sum   Mo8
_cell_volume   138.65924651
_cell_formula_units_Z   8
loop_
 _symmetry_equiv_pos_site_id
 _symmetry_equiv_pos_as_xyz
  1  'x, y, z'
loop_
 _atom_site_type_symbol
 _atom_site_label
 _atom_site_symmetry_multiplicity
 _atom_site_fract_x
 _atom_site_fract_y
 _atom_site_fract_z
 _atom_site_occupancy
  Mo  Mo0  1  0.00000000  0.00000000  0.00000000  1
  Mo  Mo1  1  2.85003224  2.75798534  2.24746859  1
  Mo  Mo2  1  1.33468620  2.75208338  -0.14284340  1
  Mo  Mo3  1  4.06400108  2.86327607  -0.08387803  1
  Mo  Mo4  1  0.13570299  1.29854913  2.27466626  1
  Mo  Mo5  1  0.10573176  3.99503617  2.10234018  1
  Mo  Mo6  1  2.80465917  0.08634549  1.23938003  1
  Mo  Mo7  1  2.95534778  0.03665111  3.60020933  1
