# generated using pymatgen
data_Mo
_symmetry_space_group_name_H-M   'P 1'
_cell_length_a   5.10751489
_cell_length_b   5.38783556
_cell_length_c   5.28090023
_cell_angle_alpha   88.25679190
_cell_angle_beta   85.54824104
_cell_angle_gamma   93.30775442
_symmetry_Int_Tables_number   1
_chemical_formula_structural   Mo
_chemical_formula_sum   Mo8
_cell_volume   144.55344753
_cell_formula_units_Z   8
loop_
 _symmetry_equiv_pos_site_id
 _symmetry_equiv_pos_as_xyz
  1  'x, y, z'
loop_
 _atom_site_type_symbol
 _atom_site_label
 _atom_site_symmetry_multiplicity
 _atom_site_fract_x
 _atom_site_fract_y
 _atom_site_fract_z
 _atom_site_occupancy
  Mo  Mo0  1  0.00000000  0.00000000  0.00000000  1
  Mo  Mo1  1  2.49427052  2.83187413  2.68246336  1
  Mo  Mo2  1  1.05871289  2.71460121  0.02705145  1
  Mo  Mo3  1  3.61143586  2.77359391  0.06950601  1
  Mo  Mo4  1  0.05037185  1.43032900  2.63709672  1
  Mo  Mo5  1  -0.16727675  4.11543387  2.64292088  1
  Mo  Mo6  1  2.63232104  0.10288097  1.35954688  1
  Mo  Mo7  1  2.79151720  0.19065754  3.99373151  1
