# generated using pymatgen
data_Mo
_symmetry_space_group_name_H-M   'P 1'
_cell_length_a   4.78455982
_cell_length_b   4.65463412
_cell_length_c   4.87227472
_cell_angle_alpha   81.07334841
_cell_angle_beta   85.79371079
_cell_angle_gamma   86.91968453
_symmetry_Int_Tables_number   1
_chemical_formula_structural   Mo
_chemical_formula_sum   Mo8
_cell_volume   106.80556079
_cell_formula_units_Z   8
loop_
 _symmetry_equiv_pos_site_id
 _symmetry_equiv_pos_as_xyz
  1  'x, y, z'
loop_
 _atom_site_type_symbol
 _atom_site_label
 _atom_site_symmetry_multiplicity
 _atom_site_fract_x
 _atom_site_fract_y
 _atom_site_fract_z
 _atom_site_occupancy
  Mo  Mo0  1  0.00000000  0.00000000  0.00000000  1
  Mo  Mo1  1  2.65203078  2.44613814  2.69631666  1
  Mo  Mo2  1  1.39614970  2.27007737  0.20940172  1
  Mo  Mo3  1  3.78366566  2.18267596  0.33241274  1
  Mo  Mo4  1  0.16331896  1.37665052  2.49935752  1
  Mo  Mo5  1  0.36571069  3.69042860  2.64725374  1
  Mo  Mo6  1  2.41857751  0.02247932  1.33571573  1
  Mo  Mo7  1  2.48070060  0.24224080  3.76112515  1
