# generated using pymatgen
data_Mo
_symmetry_space_group_name_H-M   'P 1'
_cell_length_a   5.30620548
_cell_length_b   5.43080321
_cell_length_c   5.28807144
_cell_angle_alpha   88.81286378
_cell_angle_beta   85.49979248
_cell_angle_gamma   86.64062027
_symmetry_Int_Tables_number   1
_chemical_formula_structural   Mo
_chemical_formula_sum   Mo8
_cell_volume   151.63538669
_cell_formula_units_Z   8
loop_
 _symmetry_equiv_pos_site_id
 _symmetry_equiv_pos_as_xyz
  1  'x, y, z'
loop_
 _atom_site_type_symbol
 _atom_site_label
 _atom_site_symmetry_multiplicity
 _atom_site_fract_x
 _atom_site_fract_y
 _atom_site_fract_z
 _atom_site_occupancy
  Mo  Mo0  1  0.00000000  0.00000000  0.00000000  1
  Mo  Mo1  1  2.84997693  2.85263490  2.71772290  1
  Mo  Mo2  1  1.47219190  2.71807911  0.00024714  1
  Mo  Mo3  1  4.12077291  2.73367034  0.15429151  1
  Mo  Mo4  1  0.12744522  1.48190193  2.60206605  1
  Mo  Mo5  1  0.27534661  4.19218543  2.52529102  1
  Mo  Mo6  1  2.67532827  0.07897132  1.47427115  1
  Mo  Mo7  1  2.72882280  0.20573149  4.11472473  1
