# generated using pymatgen
data_Mo
_symmetry_space_group_name_H-M   'P 1'
_cell_length_a   4.91303424
_cell_length_b   4.75252980
_cell_length_c   4.76826003
_cell_angle_alpha   90.78724477
_cell_angle_beta   91.92162429
_cell_angle_gamma   81.16742644
_symmetry_Int_Tables_number   1
_chemical_formula_structural   Mo
_chemical_formula_sum   Mo8
_cell_volume   109.94940015
_cell_formula_units_Z   8
loop_
 _symmetry_equiv_pos_site_id
 _symmetry_equiv_pos_as_xyz
  1  'x, y, z'
loop_
 _atom_site_type_symbol
 _atom_site_label
 _atom_site_symmetry_multiplicity
 _atom_site_fract_x
 _atom_site_fract_y
 _atom_site_fract_z
 _atom_site_occupancy
  Mo  Mo0  1  0.00000000  0.00000000  0.00000000  1
  Mo  Mo1  1  2.58175566  2.61679531  2.25749233  1
  Mo  Mo2  1  1.43115125  2.44732683  -0.11815439  1
  Mo  Mo3  1  3.88207346  2.61263118  -0.12960611  1
  Mo  Mo4  1  0.02798838  1.26915364  2.32515831  1
  Mo  Mo5  1  0.23367853  3.63382830  2.21272978  1
  Mo  Mo6  1  2.41349386  0.20871249  1.17923457  1
  Mo  Mo7  1  2.33863716  0.29552880  3.56060715  1
