# generated using pymatgen
data_Mo
_symmetry_space_group_name_H-M   'P 1'
_cell_length_a   5.31296338
_cell_length_b   5.46515807
_cell_length_c   5.31939121
_cell_angle_alpha   96.22445118
_cell_angle_beta   97.01455632
_cell_angle_gamma   89.51207197
_symmetry_Int_Tables_number   1
_chemical_formula_structural   Mo
_chemical_formula_sum   Mo8
_cell_volume   152.39327917
_cell_formula_units_Z   8
loop_
 _symmetry_equiv_pos_site_id
 _symmetry_equiv_pos_as_xyz
  1  'x, y, z'
loop_
 _atom_site_type_symbol
 _atom_site_label
 _atom_site_symmetry_multiplicity
 _atom_site_fract_x
 _atom_site_fract_y
 _atom_site_fract_z
 _atom_site_occupancy
  Mo  Mo0  1  0.00000000  0.00000000  0.00000000  1
  Mo  Mo1  1  2.66358074  2.40298969  2.35601043  1
  Mo  Mo2  1  1.49068918  2.65150961  -0.20092650  1
  Mo  Mo3  1  4.13657359  2.50396900  -0.38645944  1
  Mo  Mo4  1  -0.06617716  1.18789035  2.59562338  1
  Mo  Mo5  1  0.10156983  3.91317024  2.48746335  1
  Mo  Mo6  1  2.57085908  -0.23491540  1.13931876  1
  Mo  Mo7  1  2.42080844  -0.40966501  3.78902216  1
