# generated using pymatgen
data_Mo
_symmetry_space_group_name_H-M   'P 1'
_cell_length_a   5.40124597
_cell_length_b   4.74423046
_cell_length_c   5.52506496
_cell_angle_alpha   97.33765714
_cell_angle_beta   94.30054188
_cell_angle_gamma   93.64713384
_symmetry_Int_Tables_number   1
_chemical_formula_structural   Mo
_chemical_formula_sum   Mo8
_cell_volume   139.63972743
_cell_formula_units_Z   8
loop_
 _symmetry_equiv_pos_site_id
 _symmetry_equiv_pos_as_xyz
  1  'x, y, z'
loop_
 _atom_site_type_symbol
 _atom_site_label
 _atom_site_symmetry_multiplicity
 _atom_site_fract_x
 _atom_site_fract_y
 _atom_site_fract_z
 _atom_site_occupancy
  Mo  Mo0  1  0.00000000  0.00000000  0.00000000  1
  Mo  Mo1  1  2.50958149  2.18988260  2.41878274  1
  Mo  Mo2  1  1.13211076  2.39021490  -0.21900319  1
  Mo  Mo3  1  3.82226448  2.45015878  -0.44888182  1
  Mo  Mo4  1  -0.07408918  0.94981725  2.70069331  1
  Mo  Mo5  1  -0.28705528  3.31006020  2.59662944  1
  Mo  Mo6  1  2.70635066  -0.05520824  1.14648399  1
  Mo  Mo7  1  2.73874453  -0.28551247  3.89920924  1
