# generated using pymatgen
data_Mo
_symmetry_space_group_name_H-M   'P 1'
_cell_length_a   5.33004460
_cell_length_b   4.93071287
_cell_length_c   4.76166275
_cell_angle_alpha   83.55298841
_cell_angle_beta   93.21212716
_cell_angle_gamma   93.68720651
_symmetry_Int_Tables_number   1
_chemical_formula_structural   Mo
_chemical_formula_sum   Mo8
_cell_volume   123.94166533
_cell_formula_units_Z   8
loop_
 _symmetry_equiv_pos_site_id
 _symmetry_equiv_pos_as_xyz
  1  'x, y, z'
loop_
 _atom_site_type_symbol
 _atom_site_label
 _atom_site_symmetry_multiplicity
 _atom_site_fract_x
 _atom_site_fract_y
 _atom_site_fract_z
 _atom_site_occupancy
  Mo  Mo0  1  0.00000000  0.00000000  0.00000000  1
  Mo  Mo1  1  2.34061677  2.74364583  2.36740847  1
  Mo  Mo2  1  1.11521122  2.48737428  0.01770135  1
  Mo  Mo3  1  3.77922652  2.55103406  -0.01854486  1
  Mo  Mo4  1  -0.21500031  1.45221385  2.38574245  1
  Mo  Mo5  1  -0.43179674  3.90775825  2.42156690  1
  Mo  Mo6  1  2.61071425  0.17588061  1.14766891  1
  Mo  Mo7  1  2.50411216  0.40032227  3.51549914  1
