# generated using pymatgen
data_Mo
_symmetry_space_group_name_H-M   'P 1'
_cell_length_a   4.71809699
_cell_length_b   5.42394469
_cell_length_c   4.90588315
_cell_angle_alpha   89.17359204
_cell_angle_beta   95.80615540
_cell_angle_gamma   94.10212928
_symmetry_Int_Tables_number   1
_chemical_formula_structural   Mo
_chemical_formula_sum   Mo8
_cell_volume   124.57765730
_cell_formula_units_Z   8
loop_
 _symmetry_equiv_pos_site_id
 _symmetry_equiv_pos_as_xyz
  1  'x, y, z'
loop_
 _atom_site_type_symbol
 _atom_site_label
 _atom_site_symmetry_multiplicity
 _atom_site_fract_x
 _atom_site_fract_y
 _atom_site_fract_z
 _atom_site_occupancy
  Mo  Mo0  1  0.00000000  0.00000000  0.00000000  1
  Mo  Mo1  1  2.21002588  2.76026111  2.13057999  1
  Mo  Mo2  1  1.07920422  2.65979603  -0.22185647  1
  Mo  Mo3  1  3.42856035  2.56468635  -0.41314086  1
  Mo  Mo4  1  -0.09159333  1.50169535  2.38497152  1
  Mo  Mo5  1  -0.18706717  4.20904622  2.25875724  1
  Mo  Mo6  1  2.32742793  -0.02109972  1.03275493  1
  Mo  Mo7  1  2.28357152  0.12692020  3.48083358  1
