# generated using pymatgen
data_Mo
_symmetry_space_group_name_H-M   'P 1'
_cell_length_a   5.18699089
_cell_length_b   5.37514942
_cell_length_c   5.32850655
_cell_angle_alpha   91.26268464
_cell_angle_beta   87.76050313
_cell_angle_gamma   92.35333713
_symmetry_Int_Tables_number   1
_chemical_formula_structural   Mo
_chemical_formula_sum   Mo8
_cell_volume   148.29356281
_cell_formula_units_Z   8
loop_
 _symmetry_equiv_pos_site_id
 _symmetry_equiv_pos_as_xyz
  1  'x, y, z'
loop_
 _atom_site_type_symbol
 _atom_site_label
 _atom_site_symmetry_multiplicity
 _atom_site_fract_x
 _atom_site_fract_y
 _atom_site_fract_z
 _atom_site_occupancy
  Mo  Mo0  1  0.00000000  0.00000000  0.00000000  1
  Mo  Mo1  1  2.58352171  2.48919556  2.79801085  1
  Mo  Mo2  1  1.22018388  2.66731969  0.12230704  1
  Mo  Mo3  1  3.81322640  2.63309532  0.15662667  1
  Mo  Mo4  1  0.02864789  1.18120398  2.71111761  1
  Mo  Mo5  1  -0.04768949  3.86563585  2.81626484  1
  Mo  Mo6  1  2.62645080  -0.11473034  1.36359163  1
  Mo  Mo7  1  2.69326737  -0.27574229  4.02213563  1
