# generated using pymatgen
data_Mo
_symmetry_space_group_name_H-M   'P 1'
_cell_length_a   5.39882096
_cell_length_b   5.50909889
_cell_length_c   5.07727383
_cell_angle_alpha   87.83750605
_cell_angle_beta   88.65142912
_cell_angle_gamma   92.38704082
_symmetry_Int_Tables_number   1
_chemical_formula_structural   Mo
_chemical_formula_sum   Mo8
_cell_volume   150.72535523
_cell_formula_units_Z   8
loop_
 _symmetry_equiv_pos_site_id
 _symmetry_equiv_pos_as_xyz
  1  'x, y, z'
loop_
 _atom_site_type_symbol
 _atom_site_label
 _atom_site_symmetry_multiplicity
 _atom_site_fract_x
 _atom_site_fract_y
 _atom_site_fract_z
 _atom_site_occupancy
  Mo  Mo0  1  0.00000000  0.00000000  0.00000000  1
  Mo  Mo1  1  2.74328216  2.88848685  2.38348199  1
  Mo  Mo2  1  1.26691854  2.73533474  -0.11142414  1
  Mo  Mo3  1  3.96521779  2.70149185  -0.18108577  1
  Mo  Mo4  1  0.08609845  1.54620166  2.49144028  1
  Mo  Mo5  1  0.00386737  4.29845785  2.41484696  1
  Mo  Mo6  1  2.76190624  0.05119388  1.19520683  1
  Mo  Mo7  1  2.88912024  0.22126744  3.72494377  1
