# generated using pymatgen
data_Mo
_symmetry_space_group_name_H-M   'P 1'
_cell_length_a   4.65509172
_cell_length_b   5.48403439
_cell_length_c   5.24079061
_cell_angle_alpha   86.68143279
_cell_angle_beta   84.93904163
_cell_angle_gamma   90.03257134
_symmetry_Int_Tables_number   1
_chemical_formula_structural   Mo
_chemical_formula_sum   Mo8
_cell_volume   133.04324405
_cell_formula_units_Z   8
loop_
 _symmetry_equiv_pos_site_id
 _symmetry_equiv_pos_as_xyz
  1  'x, y, z'
loop_
 _atom_site_type_symbol
 _atom_site_label
 _atom_site_symmetry_multiplicity
 _atom_site_fract_x
 _atom_site_fract_y
 _atom_site_fract_z
 _atom_site_occupancy
  Mo  Mo0  1  0.00000000  0.00000000  0.00000000  1
  Mo  Mo1  1  2.54929333  2.61726367  2.89038246  1
  Mo  Mo2  1  1.27116649  2.68408157  0.22189959  1
  Mo  Mo3  1  3.59431455  2.58329617  0.32336453  1
  Mo  Mo4  1  0.17134904  1.35081193  2.70333397  1
  Mo  Mo5  1  0.28094150  4.08528622  2.87450109  1
  Mo  Mo6  1  2.38142446  -0.10899802  1.41034014  1
  Mo  Mo7  1  2.49797726  -0.12542322  4.02809055  1
