# generated using pymatgen
data_Mo
_symmetry_space_group_name_H-M   'P 1'
_cell_length_a   4.91650794
_cell_length_b   4.80329809
_cell_length_c   4.88328998
_cell_angle_alpha   81.93920425
_cell_angle_beta   94.40900708
_cell_angle_gamma   87.80370675
_symmetry_Int_Tables_number   1
_chemical_formula_structural   Mo
_chemical_formula_sum   Mo8
_cell_volume   113.70289744
_cell_formula_units_Z   8
loop_
 _symmetry_equiv_pos_site_id
 _symmetry_equiv_pos_as_xyz
  1  'x, y, z'
loop_
 _atom_site_type_symbol
 _atom_site_label
 _atom_site_symmetry_multiplicity
 _atom_site_fract_x
 _atom_site_fract_y
 _atom_site_fract_z
 _atom_site_occupancy
  Mo  Mo0  1  0.00000000  0.00000000  0.00000000  1
  Mo  Mo1  1  2.37961267  2.59120688  2.56317249  1
  Mo  Mo2  1  1.29069308  2.41134747  0.15633522  1
  Mo  Mo3  1  3.74817698  2.44611608  0.10557482  1
  Mo  Mo4  1  -0.10884678  1.35945669  2.52307517  1
  Mo  Mo5  1  -0.04689566  3.75341988  2.70479058  1
  Mo  Mo6  1  2.38757273  0.11600616  1.16534834  1
  Mo  Mo7  1  2.24775037  0.27848125  3.59756581  1
