# generated using pymatgen
data_Mo
_symmetry_space_group_name_H-M   'P 1'
_cell_length_a   9.44236900
_cell_length_b   9.44236900
_cell_length_c   9.44236900
_cell_angle_alpha   90.00000000
_cell_angle_beta   90.00000000
_cell_angle_gamma   90.00000000
_symmetry_Int_Tables_number   1
_chemical_formula_structural   Mo
_chemical_formula_sum   Mo53
_cell_volume   841.86587335
_cell_formula_units_Z   53
loop_
 _symmetry_equiv_pos_site_id
 _symmetry_equiv_pos_as_xyz
  1  'x, y, z'
loop_
 _atom_site_type_symbol
 _atom_site_label
 _atom_site_symmetry_multiplicity
 _atom_site_fract_x
 _atom_site_fract_y
 _atom_site_fract_z
 _atom_site_occupancy
  Mo  Mo0  1  1.55606241  1.58229065  1.54848693  1
  Mo  Mo1  1  0.00506542  0.00554618  3.19405617  1
  Mo  Mo2  1  1.57728906  1.52577161  4.74911660  1
  Mo  Mo3  1  0.01933220  0.01822905  6.29798513  1
  Mo  Mo4  1  1.61242307  1.57209746  7.91465857  1
  Mo  Mo5  1  -0.02896413  3.13505006  -0.00449436  1
  Mo  Mo6  1  1.45864384  4.72739361  1.58225712  1
  Mo  Mo7  1  -0.07745811  3.17552085  3.16151686  1
  Mo  Mo8  1  1.56977984  4.78777387  4.71266748  1
  Mo  Mo9  1  0.04822631  3.21558684  6.30524071  1
  Mo  Mo10  1  1.59780941  4.72139254  7.86251769  1
  Mo  Mo11  1  0.00056947  6.28860490  -0.00675295  1
  Mo  Mo12  1  1.47617024  7.87308247  1.60223526  1
  Mo  Mo13  1  -0.02692578  6.28444533  3.17189490  1
  Mo  Mo14  1  1.52772694  7.83553014  4.78620036  1
  Mo  Mo15  1  0.02669990  6.32214496  6.31862228  1
  Mo  Mo16  1  1.57362795  7.88351735  7.87392886  1
  Mo  Mo17  1  3.13160929  -0.02420930  -0.00980087  1
  Mo  Mo18  1  4.62519898  1.47794841  1.52131882  1
  Mo  Mo19  1  3.18210719  -0.02390359  3.19878916  1
  Mo  Mo20  1  4.75568440  1.54977643  4.72315183  1
  Mo  Mo21  1  3.18951749  0.01995570  6.25700953  1
  Mo  Mo22  1  4.75946026  1.52031797  7.85812403  1
  Mo  Mo23  1  3.12527926  3.19150278  -0.03098760  1
  Mo  Mo24  1  4.69535937  4.64412618  1.50615208  1
  Mo  Mo25  1  3.14795853  3.15169670  3.15905154  1
  Mo  Mo26  1  4.70754432  4.76173004  4.71848705  1
  Mo  Mo27  1  3.21420290  3.21738797  6.23391347  1
  Mo  Mo28  1  4.77415005  4.69049781  7.85215905  1
  Mo  Mo29  1  3.16132085  6.27680709  -0.04351722  1
  Mo  Mo30  1  4.67293301  7.86655138  1.52372465  1
  Mo  Mo31  1  3.16112290  6.29099085  3.12963177  1
  Mo  Mo32  1  4.70922209  7.88174256  4.72569934  1
  Mo  Mo33  1  3.22028015  6.27182135  6.25765010  1
  Mo  Mo34  1  4.72994893  7.85538107  7.84473004  1
  Mo  Mo35  1  6.26482971  -0.03399526  0.07843510  1
  Mo  Mo36  1  7.87223562  1.54393244  1.54732367  1
  Mo  Mo37  1  6.29304084  -0.07766519  3.22233415  1
  Mo  Mo38  1  7.98312645  1.61773487  4.76867729  1
  Mo  Mo39  1  6.32163089  0.01787434  6.35523526  1
  Mo  Mo40  1  7.91146813  1.58143115  7.87210319  1
  Mo  Mo41  1  6.26677995  3.07949470  -0.02679652  1
  Mo  Mo42  1  7.84941117  4.72032028  1.53370478  1
  Mo  Mo43  1  6.20767097  3.13897589  3.14288311  1
  Mo  Mo44  1  7.85701504  4.77577142  4.71322131  1
  Mo  Mo45  1  6.32791713  3.21348000  6.25331904  1
  Mo  Mo46  1  7.95738726  4.77417786  7.85352676  1
  Mo  Mo47  1  6.30712592  6.23332705  -0.00963823  1
  Mo  Mo48  1  7.89208353  7.87745253  1.55443737  1
  Mo  Mo49  1  6.23066147  6.23923531  3.11684100  1
  Mo  Mo50  1  7.85807398  7.90743242  4.79079390  1
  Mo  Mo51  1  6.27795468  6.29331257  6.22912252  1
  Mo  Mo52  1  7.89591662  7.97692072  7.96235929  1
