# generated using pymatgen
data_Mo
_symmetry_space_group_name_H-M   'P 1'
_cell_length_a   4.63565709
_cell_length_b   4.91989335
_cell_length_c   5.22848844
_cell_angle_alpha   88.45061619
_cell_angle_beta   93.32977666
_cell_angle_gamma   92.63452909
_symmetry_Int_Tables_number   1
_chemical_formula_structural   Mo
_chemical_formula_sum   Mo8
_cell_volume   118.88316641
_cell_formula_units_Z   8
loop_
 _symmetry_equiv_pos_site_id
 _symmetry_equiv_pos_as_xyz
  1  'x, y, z'
loop_
 _atom_site_type_symbol
 _atom_site_label
 _atom_site_symmetry_multiplicity
 _atom_site_fract_x
 _atom_site_fract_y
 _atom_site_fract_z
 _atom_site_occupancy
  Mo  Mo0  1  0.00000000  0.00000000  0.00000000  1
  Mo  Mo1  1  2.37891948  2.43128193  2.40982633  1
  Mo  Mo2  1  1.22625155  2.36844401  -0.13827446  1
  Mo  Mo3  1  3.53389879  2.18995589  -0.26170604  1
  Mo  Mo4  1  0.03505827  1.38092601  2.57153725  1
  Mo  Mo5  1  0.10748620  3.83861407  2.49497857  1
  Mo  Mo6  1  2.30706940  -0.10244713  1.18147671  1
  Mo  Mo7  1  2.30591371  0.04963485  3.79129329  1
