# generated using pymatgen
data_Mo
_symmetry_space_group_name_H-M   'P 1'
_cell_length_a   5.51002023
_cell_length_b   4.62972198
_cell_length_c   5.03893810
_cell_angle_alpha   85.18657887
_cell_angle_beta   96.92638361
_cell_angle_gamma   89.83370736
_symmetry_Int_Tables_number   1
_chemical_formula_structural   Mo
_chemical_formula_sum   Mo8
_cell_volume   127.14345084
_cell_formula_units_Z   8
loop_
 _symmetry_equiv_pos_site_id
 _symmetry_equiv_pos_as_xyz
  1  'x, y, z'
loop_
 _atom_site_type_symbol
 _atom_site_label
 _atom_site_symmetry_multiplicity
 _atom_site_fract_x
 _atom_site_fract_y
 _atom_site_fract_z
 _atom_site_occupancy
  Mo  Mo0  1  0.00000000  0.00000000  0.00000000  1
  Mo  Mo1  1  2.65269142  2.27022342  2.53916774  1
  Mo  Mo2  1  1.45057309  2.27178267  0.09722360  1
  Mo  Mo3  1  4.20095923  2.20037883  -0.04545899  1
  Mo  Mo4  1  -0.13538474  1.18788496  2.59756788  1
  Mo  Mo5  1  -0.06000470  3.49536956  2.76613278  1
  Mo  Mo6  1  2.66384876  -0.05433251  1.11396013  1
  Mo  Mo7  1  2.49077402  -0.02018984  3.62724557  1
