# generated using pymatgen
data_Mo
_symmetry_space_group_name_H-M   'P 1'
_cell_length_a   5.01655520
_cell_length_b   4.77568188
_cell_length_c   5.42141950
_cell_angle_alpha   84.69187096
_cell_angle_beta   93.42873256
_cell_angle_gamma   96.39857624
_symmetry_Int_Tables_number   1
_chemical_formula_structural   Mo
_chemical_formula_sum   Mo8
_cell_volume   128.36000272
_cell_formula_units_Z   8
loop_
 _symmetry_equiv_pos_site_id
 _symmetry_equiv_pos_as_xyz
  1  'x, y, z'
loop_
 _atom_site_type_symbol
 _atom_site_label
 _atom_site_symmetry_multiplicity
 _atom_site_fract_x
 _atom_site_fract_y
 _atom_site_fract_z
 _atom_site_occupancy
  Mo  Mo0  1  0.00000000  0.00000000  0.00000000  1
  Mo  Mo1  1  2.19820710  2.26231412  2.90523288  1
  Mo  Mo2  1  1.10584322  2.31177251  0.19996649  1
  Mo  Mo3  1  3.61094397  2.18557830  0.19862284  1
  Mo  Mo4  1  -0.23354007  1.20107352  2.80625737  1
  Mo  Mo5  1  -0.38024722  3.57594312  3.00689568  1
  Mo  Mo6  1  2.42500750  -0.11937484  1.35162546  1
  Mo  Mo7  1  2.26482101  -0.10573612  4.05756367  1
