# generated using pymatgen
data_Mo
_symmetry_space_group_name_H-M   'P 1'
_cell_length_a   5.09435268
_cell_length_b   4.91827498
_cell_length_c   5.12710008
_cell_angle_alpha   88.55355235
_cell_angle_beta   88.53345648
_cell_angle_gamma   89.29124188
_symmetry_Int_Tables_number   1
_chemical_formula_structural   Mo
_chemical_formula_sum   Mo8
_cell_volume   128.36984978
_cell_formula_units_Z   8
loop_
 _symmetry_equiv_pos_site_id
 _symmetry_equiv_pos_as_xyz
  1  'x, y, z'
loop_
 _atom_site_type_symbol
 _atom_site_label
 _atom_site_symmetry_multiplicity
 _atom_site_fract_x
 _atom_site_fract_y
 _atom_site_fract_z
 _atom_site_occupancy
  Mo  Mo0  1  0.00000000  0.00000000  0.00000000  1
  Mo  Mo1  1  2.49988442  2.64756833  2.57986080  1
  Mo  Mo2  1  1.16146562  2.52932509  0.01947250  1
  Mo  Mo3  1  3.70448086  2.67481260  0.01570366  1
  Mo  Mo4  1  0.01189018  1.27379014  2.57295118  1
  Mo  Mo5  1  -0.09815181  3.73037147  2.59430810  1
  Mo  Mo6  1  2.57647082  0.16823726  1.27736752  1
  Mo  Mo7  1  2.64338201  0.21373674  3.83964024  1
