# generated using pymatgen
data_Mo
_symmetry_space_group_name_H-M   'P 1'
_cell_length_a   5.48910394
_cell_length_b   4.94483784
_cell_length_c   4.84650376
_cell_angle_alpha   90.98454692
_cell_angle_beta   91.57453832
_cell_angle_gamma   87.24327575
_symmetry_Int_Tables_number   1
_chemical_formula_structural   Mo
_chemical_formula_sum   Mo8
_cell_volume   131.32891887
_cell_formula_units_Z   8
loop_
 _symmetry_equiv_pos_site_id
 _symmetry_equiv_pos_as_xyz
  1  'x, y, z'
loop_
 _atom_site_type_symbol
 _atom_site_label
 _atom_site_symmetry_multiplicity
 _atom_site_fract_x
 _atom_site_fract_y
 _atom_site_fract_z
 _atom_site_occupancy
  Mo  Mo0  1  0.00000000  0.00000000  0.00000000  1
  Mo  Mo1  1  2.85789819  2.43089275  2.34991157  1
  Mo  Mo2  1  1.39845457  2.52315827  0.01880513  1
  Mo  Mo3  1  4.13553976  2.62944980  -0.15333499  1
  Mo  Mo4  1  0.10585700  1.08959496  2.46961410  1
  Mo  Mo5  1  0.13576897  3.55960747  2.57448928  1
  Mo  Mo6  1  2.78253571  0.03358589  1.03644813  1
  Mo  Mo7  1  2.87343673  -0.11182540  3.45362463  1
