# generated using pymatgen
data_Mo
_symmetry_space_group_name_H-M   'P 1'
_cell_length_a   4.63764933
_cell_length_b   5.38951561
_cell_length_c   5.24866036
_cell_angle_alpha   92.62953087
_cell_angle_beta   83.03095780
_cell_angle_gamma   85.20733709
_symmetry_Int_Tables_number   1
_chemical_formula_structural   Mo
_chemical_formula_sum   Mo8
_cell_volume   129.55581791
_cell_formula_units_Z   8
loop_
 _symmetry_equiv_pos_site_id
 _symmetry_equiv_pos_as_xyz
  1  'x, y, z'
loop_
 _atom_site_type_symbol
 _atom_site_label
 _atom_site_symmetry_multiplicity
 _atom_site_fract_x
 _atom_site_fract_y
 _atom_site_fract_z
 _atom_site_occupancy
  Mo  Mo0  1  0.00000000  0.00000000  0.00000000  1
  Mo  Mo1  1  2.51311515  2.74611789  2.74605924  1
  Mo  Mo2  1  1.25180940  2.74956864  0.02966510  1
  Mo  Mo3  1  3.55999274  2.86431835  0.21958612  1
  Mo  Mo4  1  0.15607294  1.28527128  2.58878592  1
  Mo  Mo5  1  0.25379067  3.97746507  2.52349050  1
  Mo  Mo6  1  2.36179037  0.08433691  1.50063784  1
  Mo  Mo7  1  2.46900446  0.02351130  4.12207148  1
