# generated using pymatgen
data_Mo
_symmetry_space_group_name_H-M   'P 1'
_cell_length_a   5.06525399
_cell_length_b   5.42313707
_cell_length_c   5.15895920
_cell_angle_alpha   96.94424005
_cell_angle_beta   86.92347256
_cell_angle_gamma   88.65255106
_symmetry_Int_Tables_number   1
_chemical_formula_structural   Mo
_chemical_formula_sum   Mo8
_cell_volume   140.40768081
_cell_formula_units_Z   8
loop_
 _symmetry_equiv_pos_site_id
 _symmetry_equiv_pos_as_xyz
  1  'x, y, z'
loop_
 _atom_site_type_symbol
 _atom_site_label
 _atom_site_symmetry_multiplicity
 _atom_site_fract_x
 _atom_site_fract_y
 _atom_site_fract_z
 _atom_site_occupancy
  Mo  Mo0  1  0.00000000  0.00000000  0.00000000  1
  Mo  Mo1  1  2.67095828  2.61263357  2.40698056  1
  Mo  Mo2  1  1.25399918  2.74224469  -0.15881554  1
  Mo  Mo3  1  3.78563912  2.81249756  -0.16676943  1
  Mo  Mo4  1  0.14522873  1.18882157  2.49235376  1
  Mo  Mo5  1  0.13340795  3.89593981  2.33751516  1
  Mo  Mo6  1  2.60720950  -0.01211591  1.27693263  1
  Mo  Mo7  1  2.75834862  -0.17685346  3.84670568  1
