# generated using pymatgen
data_Mo
_symmetry_space_group_name_H-M   'P 1'
_cell_length_a   4.81253801
_cell_length_b   5.19872671
_cell_length_c   5.45515106
_cell_angle_alpha   91.37739965
_cell_angle_beta   88.42851190
_cell_angle_gamma   90.55959570
_symmetry_Int_Tables_number   1
_chemical_formula_structural   Mo
_chemical_formula_sum   Mo8
_cell_volume   136.38638658
_cell_formula_units_Z   8
loop_
 _symmetry_equiv_pos_site_id
 _symmetry_equiv_pos_as_xyz
  1  'x, y, z'
loop_
 _atom_site_type_symbol
 _atom_site_label
 _atom_site_symmetry_multiplicity
 _atom_site_fract_x
 _atom_site_fract_y
 _atom_site_fract_z
 _atom_site_occupancy
  Mo  Mo0  1  0.00000000  0.00000000  0.00000000  1
  Mo  Mo1  1  2.57717050  2.38783410  2.74588491  1
  Mo  Mo2  1  1.28367363  2.54839730  0.03142751  1
  Mo  Mo3  1  3.68784404  2.44966573  0.01279338  1
  Mo  Mo4  1  0.13220587  1.18768413  2.74414675  1
  Mo  Mo5  1  0.21379429  3.78544723  2.78489134  1
  Mo  Mo6  1  2.44987624  -0.15433028  1.34325310  1
  Mo  Mo7  1  2.54128790  -0.26552769  4.06702756  1
