# generated using pymatgen
data_Mo
_symmetry_space_group_name_H-M   'P 1'
_cell_length_a   4.91435540
_cell_length_b   4.73281131
_cell_length_c   5.05895999
_cell_angle_alpha   91.44622186
_cell_angle_beta   85.33403719
_cell_angle_gamma   85.75417891
_symmetry_Int_Tables_number   1
_chemical_formula_structural   Mo
_chemical_formula_sum   Mo8
_cell_volume   116.89525323
_cell_formula_units_Z   8
loop_
 _symmetry_equiv_pos_site_id
 _symmetry_equiv_pos_as_xyz
  1  'x, y, z'
loop_
 _atom_site_type_symbol
 _atom_site_label
 _atom_site_symmetry_multiplicity
 _atom_site_fract_x
 _atom_site_fract_y
 _atom_site_fract_z
 _atom_site_occupancy
  Mo  Mo0  1  0.00000000  0.00000000  0.00000000  1
  Mo  Mo1  1  2.55153495  2.64370418  2.47111419  1
  Mo  Mo2  1  1.28416293  2.42367101  -0.12862663  1
  Mo  Mo3  1  3.73308094  2.55731496  0.02191300  1
  Mo  Mo4  1  0.07276498  1.33163572  2.42252278  1
  Mo  Mo5  1  0.13246892  3.68848476  2.21862634  1
  Mo  Mo6  1  2.47037450  0.21024955  1.41277513  1
  Mo  Mo7  1  2.51328752  0.36346074  3.93724614  1
