# generated using pymatgen
data_Mo
_symmetry_space_group_name_H-M   'P 1'
_cell_length_a   4.79101817
_cell_length_b   5.24048524
_cell_length_c   4.94759360
_cell_angle_alpha   89.44416666
_cell_angle_beta   85.64829683
_cell_angle_gamma   84.27194593
_symmetry_Int_Tables_number   1
_chemical_formula_structural   Mo
_chemical_formula_sum   Mo8
_cell_volume   123.24364873
_cell_formula_units_Z   8
loop_
 _symmetry_equiv_pos_site_id
 _symmetry_equiv_pos_as_xyz
  1  'x, y, z'
loop_
 _atom_site_type_symbol
 _atom_site_label
 _atom_site_symmetry_multiplicity
 _atom_site_fract_x
 _atom_site_fract_y
 _atom_site_fract_z
 _atom_site_occupancy
  Mo  Mo0  1  0.00000000  0.00000000  0.00000000  1
  Mo  Mo1  1  2.61133730  2.59996301  2.72450555  1
  Mo  Mo2  1  1.26567815  2.69597631  0.23775548  1
  Mo  Mo3  1  3.65459551  2.86681185  0.28626150  1
  Mo  Mo4  1  0.18681021  1.12384819  2.56924830  1
  Mo  Mo5  1  0.25802968  3.73440672  2.78275077  1
  Mo  Mo6  1  2.46451760  0.08012001  1.27975454  1
  Mo  Mo7  1  2.61571807  -0.10131107  3.74225161  1
