# generated using pymatgen
data_Mo
_symmetry_space_group_name_H-M   'P 1'
_cell_length_a   4.63807074
_cell_length_b   5.28760021
_cell_length_c   4.83323172
_cell_angle_alpha   85.91928978
_cell_angle_beta   95.04024965
_cell_angle_gamma   86.79469359
_symmetry_Int_Tables_number   1
_chemical_formula_structural   Mo
_chemical_formula_sum   Mo8
_cell_volume   117.54303856
_cell_formula_units_Z   8
loop_
 _symmetry_equiv_pos_site_id
 _symmetry_equiv_pos_as_xyz
  1  'x, y, z'
loop_
 _atom_site_type_symbol
 _atom_site_label
 _atom_site_symmetry_multiplicity
 _atom_site_fract_x
 _atom_site_fract_y
 _atom_site_fract_z
 _atom_site_occupancy
  Mo  Mo0  1  0.00000000  0.00000000  0.00000000  1
  Mo  Mo1  1  2.19840941  2.81706185  2.45947284  1
  Mo  Mo2  1  1.13602257  2.71584764  0.10294111  1
  Mo  Mo3  1  3.44700815  2.86991333  -0.01339652  1
  Mo  Mo4  1  -0.10284106  1.34358876  2.49525552  1
  Mo  Mo5  1  -0.12231129  3.98240356  2.65636545  1
  Mo  Mo6  1  2.26443261  0.16615637  1.09101264  1
  Mo  Mo7  1  2.17132666  0.19033774  3.50571319  1
