# generated using pymatgen
data_Mo
_symmetry_space_group_name_H-M   'P 1'
_cell_length_a   5.12569129
_cell_length_b   5.43418468
_cell_length_c   4.70204133
_cell_angle_alpha   92.59511682
_cell_angle_beta   85.15862928
_cell_angle_gamma   89.26408386
_symmetry_Int_Tables_number   1
_chemical_formula_structural   Mo
_chemical_formula_sum   Mo8
_cell_volume   130.35104771
_cell_formula_units_Z   8
loop_
 _symmetry_equiv_pos_site_id
 _symmetry_equiv_pos_as_xyz
  1  'x, y, z'
loop_
 _atom_site_type_symbol
 _atom_site_label
 _atom_site_symmetry_multiplicity
 _atom_site_fract_x
 _atom_site_fract_y
 _atom_site_fract_z
 _atom_site_occupancy
  Mo  Mo0  1  0.00000000  0.00000000  0.00000000  1
  Mo  Mo1  1  2.64587406  2.83019569  2.25496335  1
  Mo  Mo2  1  1.26999269  2.73481191  -0.14830829  1
  Mo  Mo3  1  3.82995200  2.78555960  -0.03780574  1
  Mo  Mo4  1  0.09090823  1.42472897  2.24624058  1
  Mo  Mo5  1  0.08092127  4.13416702  2.04268101  1
  Mo  Mo6  1  2.60791017  0.08575268  1.28451274  1
  Mo  Mo7  1  2.70381188  0.15576262  3.63253311  1
