# generated using pymatgen
data_Mo
_symmetry_space_group_name_H-M   'P 1'
_cell_length_a   5.24065077
_cell_length_b   4.94321394
_cell_length_c   5.07408071
_cell_angle_alpha   82.38823186
_cell_angle_beta   93.27519221
_cell_angle_gamma   96.02729928
_symmetry_Int_Tables_number   1
_chemical_formula_structural   Mo
_chemical_formula_sum   Mo8
_cell_volume   129.44426233
_cell_formula_units_Z   8
loop_
 _symmetry_equiv_pos_site_id
 _symmetry_equiv_pos_as_xyz
  1  'x, y, z'
loop_
 _atom_site_type_symbol
 _atom_site_label
 _atom_site_symmetry_multiplicity
 _atom_site_fract_x
 _atom_site_fract_y
 _atom_site_fract_z
 _atom_site_occupancy
  Mo  Mo0  1  0.00000000  0.00000000  0.00000000  1
  Mo  Mo1  1  2.39309350  2.49289446  2.64794501  1
  Mo  Mo2  1  1.12875570  2.41749508  0.16418570  1
  Mo  Mo3  1  3.74603039  2.34108690  0.06348746  1
  Mo  Mo4  1  -0.13424037  1.34145305  2.64137584  1
  Mo  Mo5  1  -0.31412201  3.79715223  2.85591066  1
  Mo  Mo6  1  2.59512491  -0.01960644  1.16635598  1
  Mo  Mo7  1  2.55082536  0.09399702  3.70046441  1
