# generated using pymatgen
data_Mo
_symmetry_space_group_name_H-M   'P 1'
_cell_length_a   4.76676818
_cell_length_b   4.83688104
_cell_length_c   5.30412388
_cell_angle_alpha   97.65284804
_cell_angle_beta   91.79254603
_cell_angle_gamma   99.03489046
_symmetry_Int_Tables_number   1
_chemical_formula_structural   Mo
_chemical_formula_sum   Mo8
_cell_volume   119.53007545
_cell_formula_units_Z   8
loop_
 _symmetry_equiv_pos_site_id
 _symmetry_equiv_pos_as_xyz
  1  'x, y, z'
loop_
 _atom_site_type_symbol
 _atom_site_label
 _atom_site_symmetry_multiplicity
 _atom_site_fract_x
 _atom_site_fract_y
 _atom_site_fract_z
 _atom_site_occupancy
  Mo  Mo0  1  0.00000000  0.00000000  0.00000000  1
  Mo  Mo1  1  2.04185990  2.05020527  2.50523921  1
  Mo  Mo2  1  1.02468824  2.29886390  -0.17046095  1
  Mo  Mo3  1  3.39778873  2.08772907  -0.10461388  1
  Mo  Mo4  1  -0.25030960  1.05912444  2.54108439  1
  Mo  Mo5  1  -0.41217160  3.46355576  2.33769991  1
  Mo  Mo6  1  2.28841119  -0.28268045  1.38723538  1
  Mo  Mo7  1  2.11903260  -0.42577167  4.03001202  1
