# generated using pymatgen
data_Mo
_symmetry_space_group_name_H-M   'P 1'
_cell_length_a   4.70677657
_cell_length_b   4.98819676
_cell_length_c   5.08495934
_cell_angle_alpha   84.63241642
_cell_angle_beta   89.23703826
_cell_angle_gamma   91.43421838
_symmetry_Int_Tables_number   1
_chemical_formula_structural   Mo
_chemical_formula_sum   Mo8
_cell_volume   118.81089722
_cell_formula_units_Z   8
loop_
 _symmetry_equiv_pos_site_id
 _symmetry_equiv_pos_as_xyz
  1  'x, y, z'
loop_
 _atom_site_type_symbol
 _atom_site_label
 _atom_site_symmetry_multiplicity
 _atom_site_fract_x
 _atom_site_fract_y
 _atom_site_fract_z
 _atom_site_occupancy
  Mo  Mo0  1  0.00000000  0.00000000  0.00000000  1
  Mo  Mo1  1  2.48689359  2.31404678  2.78129733  1
  Mo  Mo2  1  1.34679297  2.36673485  0.20721869  1
  Mo  Mo3  1  3.68801180  2.13674796  0.27230992  1
  Mo  Mo4  1  0.05758299  1.30316953  2.62886957  1
  Mo  Mo5  1  0.23376654  3.78489784  2.80354264  1
  Mo  Mo6  1  2.32596443  -0.19883422  1.33585774  1
  Mo  Mo7  1  2.29545563  -0.13652884  3.87739077  1
