# generated using pymatgen
data_Mo
_symmetry_space_group_name_H-M   'P 1'
_cell_length_a   5.28900398
_cell_length_b   5.46122872
_cell_length_c   5.02168352
_cell_angle_alpha   90.98061888
_cell_angle_beta   92.32556794
_cell_angle_gamma   81.30823996
_symmetry_Int_Tables_number   1
_chemical_formula_structural   Mo
_chemical_formula_sum   Mo8
_cell_volume   143.25587875
_cell_formula_units_Z   8
loop_
 _symmetry_equiv_pos_site_id
 _symmetry_equiv_pos_as_xyz
  1  'x, y, z'
loop_
 _atom_site_type_symbol
 _atom_site_label
 _atom_site_symmetry_multiplicity
 _atom_site_fract_x
 _atom_site_fract_y
 _atom_site_fract_z
 _atom_site_occupancy
  Mo  Mo0  1  0.00000000  0.00000000  0.00000000  1
  Mo  Mo1  1  2.61188749  2.80138955  2.73736782  1
  Mo  Mo2  1  1.49866901  2.83154479  0.17942400  1
  Mo  Mo3  1  4.13139337  3.05089469  0.29790971  1
  Mo  Mo4  1  -0.11199028  1.22110473  2.55879154  1
  Mo  Mo5  1  0.07031654  3.94297459  2.67897269  1
  Mo  Mo6  1  2.53115251  0.14943479  1.36783619  1
  Mo  Mo7  1  2.32800881  0.00960460  3.86653715  1
