# generated using pymatgen
data_Mo
_symmetry_space_group_name_H-M   'P 1'
_cell_length_a   4.81366521
_cell_length_b   4.68443498
_cell_length_c   5.46501623
_cell_angle_alpha   80.90668201
_cell_angle_beta   92.93443329
_cell_angle_gamma   91.79341106
_symmetry_Int_Tables_number   1
_chemical_formula_structural   Mo
_chemical_formula_sum   Mo8
_cell_volume   121.49034159
_cell_formula_units_Z   8
loop_
 _symmetry_equiv_pos_site_id
 _symmetry_equiv_pos_as_xyz
  1  'x, y, z'
loop_
 _atom_site_type_symbol
 _atom_site_label
 _atom_site_symmetry_multiplicity
 _atom_site_fract_x
 _atom_site_fract_y
 _atom_site_fract_z
 _atom_site_occupancy
  Mo  Mo0  1  0.00000000  0.00000000  0.00000000  1
  Mo  Mo1  1  2.42049705  2.34363919  2.89667976  1
  Mo  Mo2  1  1.32689267  2.22799320  0.18212906  1
  Mo  Mo3  1  3.72484099  2.02188042  0.16782451  1
  Mo  Mo4  1  -0.04141053  1.38422718  2.81634364  1
  Mo  Mo5  1  0.08650800  3.71527676  3.00562497  1
  Mo  Mo6  1  2.34526342  -0.09676159  1.34654695  1
  Mo  Mo7  1  2.23989364  0.12194078  4.06824992  1
