# generated using pymatgen
data_Mo
_symmetry_space_group_name_H-M   'P 1'
_cell_length_a   5.36329705
_cell_length_b   5.02965569
_cell_length_c   4.70728414
_cell_angle_alpha   89.29639616
_cell_angle_beta   100.19425625
_cell_angle_gamma   89.22213984
_symmetry_Int_Tables_number   1
_chemical_formula_structural   Mo
_chemical_formula_sum   Mo8
_cell_volume   124.95148167
_cell_formula_units_Z   8
loop_
 _symmetry_equiv_pos_site_id
 _symmetry_equiv_pos_as_xyz
  1  'x, y, z'
loop_
 _atom_site_type_symbol
 _atom_site_label
 _atom_site_symmetry_multiplicity
 _atom_site_fract_x
 _atom_site_fract_y
 _atom_site_fract_z
 _atom_site_occupancy
  Mo  Mo0  1  0.00000000  0.00000000  0.00000000  1
  Mo  Mo1  1  2.33952275  2.48243418  2.34813000  1
  Mo  Mo2  1  1.23302870  2.58458361  0.11528325  1
  Mo  Mo3  1  3.90187996  2.74710323  -0.08980017  1
  Mo  Mo4  1  -0.27863004  1.06825266  2.44430093  1
  Mo  Mo5  1  -0.38002696  3.57157646  2.66212590  1
  Mo  Mo6  1  2.55488546  0.07081500  0.96261081  1
  Mo  Mo7  1  2.32695387  -0.11259423  3.29799926  1
