# generated using pymatgen
data_Mo
_symmetry_space_group_name_H-M   'P 1'
_cell_length_a   5.19498075
_cell_length_b   5.53403198
_cell_length_c   5.15172969
_cell_angle_alpha   91.13532695
_cell_angle_beta   88.85199158
_cell_angle_gamma   98.15268255
_symmetry_Int_Tables_number   1
_chemical_formula_structural   Mo
_chemical_formula_sum   Mo8
_cell_volume   146.56024151
_cell_formula_units_Z   8
loop_
 _symmetry_equiv_pos_site_id
 _symmetry_equiv_pos_as_xyz
  1  'x, y, z'
loop_
 _atom_site_type_symbol
 _atom_site_label
 _atom_site_symmetry_multiplicity
 _atom_site_fract_x
 _atom_site_fract_y
 _atom_site_fract_z
 _atom_site_occupancy
  Mo  Mo0  1  0.00000000  0.00000000  0.00000000  1
  Mo  Mo1  1  2.48137095  2.36532779  2.68953717  1
  Mo  Mo2  1  1.09435159  2.66521041  0.15140448  1
  Mo  Mo3  1  3.68519778  2.48783034  0.09655399  1
  Mo  Mo4  1  -0.00893948  1.16575764  2.65497280  1
  Mo  Mo5  1  -0.21001098  3.91965808  2.83380251  1
  Mo  Mo6  1  2.63664433  -0.28297637  1.22792848  1
  Mo  Mo7  1  2.72824060  -0.49416896  3.79348641  1
