# generated using pymatgen
data_Mo
_symmetry_space_group_name_H-M   'P 1'
_cell_length_a   5.20637846
_cell_length_b   4.86838893
_cell_length_c   5.11543370
_cell_angle_alpha   91.64914239
_cell_angle_beta   92.81404183
_cell_angle_gamma   97.74042633
_symmetry_Int_Tables_number   1
_chemical_formula_structural   Mo
_chemical_formula_sum   Mo8
_cell_volume   128.24083480
_cell_formula_units_Z   8
loop_
 _symmetry_equiv_pos_site_id
 _symmetry_equiv_pos_as_xyz
  1  'x, y, z'
loop_
 _atom_site_type_symbol
 _atom_site_label
 _atom_site_symmetry_multiplicity
 _atom_site_fract_x
 _atom_site_fract_y
 _atom_site_fract_z
 _atom_site_occupancy
  Mo  Mo0  1  0.00000000  0.00000000  0.00000000  1
  Mo  Mo1  1  2.46056740  2.32566651  2.24981400  1
  Mo  Mo2  1  1.17373357  2.30769558  -0.25076941  1
  Mo  Mo3  1  3.76444173  2.07678925  -0.35804301  1
  Mo  Mo4  1  -0.06933051  1.34499846  2.45565391  1
  Mo  Mo5  1  -0.19095103  3.76814722  2.25852131  1
  Mo  Mo6  1  2.58644803  -0.16419430  1.16983650  1
  Mo  Mo7  1  2.57792779  -0.03077020  3.72405671  1
