# generated using pymatgen
data_Mo
_symmetry_space_group_name_H-M   'P 1'
_cell_length_a   5.09279263
_cell_length_b   5.17585408
_cell_length_c   5.53856542
_cell_angle_alpha   85.31280595
_cell_angle_beta   87.20818744
_cell_angle_gamma   87.13227821
_symmetry_Int_Tables_number   1
_chemical_formula_structural   Mo
_chemical_formula_sum   Mo8
_cell_volume   145.17756285
_cell_formula_units_Z   8
loop_
 _symmetry_equiv_pos_site_id
 _symmetry_equiv_pos_as_xyz
  1  'x, y, z'
loop_
 _atom_site_type_symbol
 _atom_site_label
 _atom_site_symmetry_multiplicity
 _atom_site_fract_x
 _atom_site_fract_y
 _atom_site_fract_z
 _atom_site_occupancy
  Mo  Mo0  1  0.00000000  0.00000000  0.00000000  1
  Mo  Mo1  1  2.42218573  2.81956227  3.09048525  1
  Mo  Mo2  1  1.21779338  2.66651681  0.23401130  1
  Mo  Mo3  1  3.75254154  2.83280333  0.41159157  1
  Mo  Mo4  1  -0.08777208  1.36158897  2.84029440  1
  Mo  Mo5  1  -0.13735278  3.94496253  2.98551555  1
  Mo  Mo6  1  2.50325729  0.20123761  1.56142219  1
  Mo  Mo7  1  2.44027556  0.27113981  4.32910600  1
