# generated using pymatgen
data_Mo
_symmetry_space_group_name_H-M   'P 1'
_cell_length_a   5.31688372
_cell_length_b   4.72828934
_cell_length_c   4.94031738
_cell_angle_alpha   92.94439182
_cell_angle_beta   90.73008570
_cell_angle_gamma   81.53171627
_symmetry_Int_Tables_number   1
_chemical_formula_structural   Mo
_chemical_formula_sum   Mo8
_cell_volume   122.68048937
_cell_formula_units_Z   8
loop_
 _symmetry_equiv_pos_site_id
 _symmetry_equiv_pos_as_xyz
  1  'x, y, z'
loop_
 _atom_site_type_symbol
 _atom_site_label
 _atom_site_symmetry_multiplicity
 _atom_site_fract_x
 _atom_site_fract_y
 _atom_site_fract_z
 _atom_site_occupancy
  Mo  Mo0  1  0.00000000  0.00000000  0.00000000  1
  Mo  Mo1  1  2.76327396  2.51918941  2.42073365  1
  Mo  Mo2  1  1.52688230  2.43801174  -0.07918313  1
  Mo  Mo3  1  4.17913973  2.60801727  -0.01639994  1
  Mo  Mo4  1  0.01063974  1.17267940  2.41323783  1
  Mo  Mo5  1  0.21139332  3.52568838  2.30266310  1
  Mo  Mo6  1  2.60738891  0.16809298  1.29704578  1
  Mo  Mo7  1  2.51765185  0.16426789  3.76557096  1
