# generated using pymatgen
data_Mo
_symmetry_space_group_name_H-M   'P 1'
_cell_length_a   4.98063212
_cell_length_b   5.04842768
_cell_length_c   5.40674212
_cell_angle_alpha   83.60133561
_cell_angle_beta   95.43279956
_cell_angle_gamma   96.17678407
_symmetry_Int_Tables_number   1
_chemical_formula_structural   Mo
_chemical_formula_sum   Mo8
_cell_volume   133.84664468
_cell_formula_units_Z   8
loop_
 _symmetry_equiv_pos_site_id
 _symmetry_equiv_pos_as_xyz
  1  'x, y, z'
loop_
 _atom_site_type_symbol
 _atom_site_label
 _atom_site_symmetry_multiplicity
 _atom_site_fract_x
 _atom_site_fract_y
 _atom_site_fract_z
 _atom_site_occupancy
  Mo  Mo0  1  0.00000000  0.00000000  0.00000000  1
  Mo  Mo1  1  2.16982930  2.58979806  2.71289525  1
  Mo  Mo2  1  1.07990177  2.46484355  0.06380471  1
  Mo  Mo3  1  3.56649885  2.36131853  -0.02446519  1
  Mo  Mo4  1  -0.23506941  1.43502005  2.74719531  1
  Mo  Mo5  1  -0.39846618  3.95162611  2.85513497  1
  Mo  Mo6  1  2.40991158  -0.01516651  1.25834285  1
  Mo  Mo7  1  2.25654057  0.16155052  3.95156833  1
