# generated using pymatgen
data_Mo
_symmetry_space_group_name_H-M   'P 1'
_cell_length_a   5.24219010
_cell_length_b   5.25245852
_cell_length_c   4.82685367
_cell_angle_alpha   94.08033442
_cell_angle_beta   91.19835225
_cell_angle_gamma   93.95713059
_symmetry_Int_Tables_number   1
_chemical_formula_structural   Mo
_chemical_formula_sum   Mo8
_cell_volume   132.20698673
_cell_formula_units_Z   8
loop_
 _symmetry_equiv_pos_site_id
 _symmetry_equiv_pos_as_xyz
  1  'x, y, z'
loop_
 _atom_site_type_symbol
 _atom_site_label
 _atom_site_symmetry_multiplicity
 _atom_site_fract_x
 _atom_site_fract_y
 _atom_site_fract_z
 _atom_site_occupancy
  Mo  Mo0  1  0.00000000  0.00000000  0.00000000  1
  Mo  Mo1  1  2.46317368  2.45129780  2.32359716  1
  Mo  Mo2  1  1.16168250  2.60503243  -0.06226833  1
  Mo  Mo3  1  3.78213759  2.57161625  -0.10957314  1
  Mo  Mo4  1  -0.08300888  1.17384372  2.39020993  1
  Mo  Mo5  1  -0.23155393  3.79558423  2.35159401  1
  Mo  Mo6  1  2.61608691  -0.10192944  1.15745414  1
  Mo  Mo7  1  2.60735054  -0.23895598  3.56697204  1
