# generated using pymatgen
data_Mo
_symmetry_space_group_name_H-M   'P 1'
_cell_length_a   5.10127588
_cell_length_b   5.15034567
_cell_length_c   5.40853585
_cell_angle_alpha   92.86273107
_cell_angle_beta   94.73055060
_cell_angle_gamma   88.30223283
_symmetry_Int_Tables_number   1
_chemical_formula_structural   Mo
_chemical_formula_sum   Mo8
_cell_volume   141.39302868
_cell_formula_units_Z   8
loop_
 _symmetry_equiv_pos_site_id
 _symmetry_equiv_pos_as_xyz
  1  'x, y, z'
loop_
 _atom_site_type_symbol
 _atom_site_label
 _atom_site_symmetry_multiplicity
 _atom_site_fract_x
 _atom_site_fract_y
 _atom_site_fract_z
 _atom_site_occupancy
  Mo  Mo0  1  0.00000000  0.00000000  0.00000000  1
  Mo  Mo1  1  2.43650043  2.66886181  2.43862336  1
  Mo  Mo2  1  1.26504692  2.60954272  -0.20615191  1
  Mo  Mo3  1  3.81191742  2.68689910  -0.32113233  1
  Mo  Mo4  1  -0.10617590  1.30607317  2.62793462  1
  Mo  Mo5  1  -0.11456425  3.87693770  2.47927291  1
  Mo  Mo6  1  2.49587964  0.08767683  1.23615233  1
  Mo  Mo7  1  2.39389791  0.10831773  3.93841780  1
