# generated using pymatgen
data_Mo
_symmetry_space_group_name_H-M   'P 1'
_cell_length_a   4.88466156
_cell_length_b   5.39254539
_cell_length_c   5.38577006
_cell_angle_alpha   88.69249543
_cell_angle_beta   92.38172036
_cell_angle_gamma   89.96168050
_symmetry_Int_Tables_number   1
_chemical_formula_structural   Mo
_chemical_formula_sum   Mo8
_cell_volume   141.70562918
_cell_formula_units_Z   8
loop_
 _symmetry_equiv_pos_site_id
 _symmetry_equiv_pos_as_xyz
  1  'x, y, z'
loop_
 _atom_site_type_symbol
 _atom_site_label
 _atom_site_symmetry_multiplicity
 _atom_site_fract_x
 _atom_site_fract_y
 _atom_site_fract_z
 _atom_site_occupancy
  Mo  Mo0  1  0.00000000  0.00000000  0.00000000  1
  Mo  Mo1  1  2.72640409  2.68058772  2.37932718  1
  Mo  Mo2  1  1.41656769  2.59063194  -0.21793966  1
  Mo  Mo3  1  3.84520848  2.40086767  -0.39307688  1
  Mo  Mo4  1  0.19663965  1.52759496  2.61964993  1
  Mo  Mo5  1  0.39888693  4.21310904  2.48927888  1
  Mo  Mo6  1  2.47639880  -0.09734532  1.16728051  1
  Mo  Mo7  1  2.57191481  0.08749260  3.85211596  1
