# generated using pymatgen
data_Mo
_symmetry_space_group_name_H-M   'P 1'
_cell_length_a   4.64168415
_cell_length_b   4.69018277
_cell_length_c   5.17101881
_cell_angle_alpha   88.78145261
_cell_angle_beta   96.08568990
_cell_angle_gamma   85.50675473
_symmetry_Int_Tables_number   1
_chemical_formula_structural   Mo
_chemical_formula_sum   Mo8
_cell_volume   111.54674823
_cell_formula_units_Z   8
loop_
 _symmetry_equiv_pos_site_id
 _symmetry_equiv_pos_as_xyz
  1  'x, y, z'
loop_
 _atom_site_type_symbol
 _atom_site_label
 _atom_site_symmetry_multiplicity
 _atom_site_fract_x
 _atom_site_fract_y
 _atom_site_fract_z
 _atom_site_occupancy
  Mo  Mo0  1  0.00000000  0.00000000  0.00000000  1
  Mo  Mo1  1  2.30575420  2.43880933  2.47884339  1
  Mo  Mo2  1  1.23088227  2.39937192  -0.01883099  1
  Mo  Mo3  1  3.54250941  2.51229133  -0.19185436  1
  Mo  Mo4  1  -0.04340728  1.15443380  2.61802640  1
  Mo  Mo5  1  0.03166141  3.49734602  2.68570710  1
  Mo  Mo6  1  2.27115633  0.10440827  1.11906966  1
  Mo  Mo7  1  2.19021469  0.08738597  3.70325572  1
