# generated using pymatgen
data_Mo
_symmetry_space_group_name_H-M   'P 1'
_cell_length_a   4.79734456
_cell_length_b   5.13428584
_cell_length_c   5.03190940
_cell_angle_alpha   93.28630433
_cell_angle_beta   86.94432738
_cell_angle_gamma   86.63418303
_symmetry_Int_Tables_number   1
_chemical_formula_structural   Mo
_chemical_formula_sum   Mo8
_cell_volume   123.32352891
_cell_formula_units_Z   8
loop_
 _symmetry_equiv_pos_site_id
 _symmetry_equiv_pos_as_xyz
  1  'x, y, z'
loop_
 _atom_site_type_symbol
 _atom_site_label
 _atom_site_symmetry_multiplicity
 _atom_site_fract_x
 _atom_site_fract_y
 _atom_site_fract_z
 _atom_site_occupancy
  Mo  Mo0  1  0.00000000  0.00000000  0.00000000  1
  Mo  Mo1  1  2.42375000  2.49472931  2.68357700  1
  Mo  Mo2  1  1.18048404  2.64193389  0.12960823  1
  Mo  Mo3  1  3.57236256  2.79417896  0.22639293  1
  Mo  Mo4  1  0.03959909  1.05957856  2.54618437  1
  Mo  Mo5  1  0.02414387  3.62538991  2.62740025  1
  Mo  Mo6  1  2.41554187  0.04058152  1.34957290  1
  Mo  Mo7  1  2.46286858  -0.18274560  3.85514933  1
