# generated using pymatgen
data_Mo
_symmetry_space_group_name_H-M   'P 1'
_cell_length_a   5.20880713
_cell_length_b   5.52484508
_cell_length_c   5.21254822
_cell_angle_alpha   91.62614328
_cell_angle_beta   94.63427933
_cell_angle_gamma   90.69367653
_symmetry_Int_Tables_number   1
_chemical_formula_structural   Mo
_chemical_formula_sum   Mo8
_cell_volume   149.43970809
_cell_formula_units_Z   8
loop_
 _symmetry_equiv_pos_site_id
 _symmetry_equiv_pos_as_xyz
  1  'x, y, z'
loop_
 _atom_site_type_symbol
 _atom_site_label
 _atom_site_symmetry_multiplicity
 _atom_site_fract_x
 _atom_site_fract_y
 _atom_site_fract_z
 _atom_site_occupancy
  Mo  Mo0  1  0.00000000  0.00000000  0.00000000  1
  Mo  Mo1  1  2.63519779  2.73106213  2.26361006  1
  Mo  Mo2  1  1.39307090  2.68860304  -0.26528119  1
  Mo  Mo3  1  3.98989274  2.55740353  -0.41434808  1
  Mo  Mo4  1  -0.00895404  1.48516025  2.50805082  1
  Mo  Mo5  1  0.08570594  4.23936305  2.31730307  1
  Mo  Mo6  1  2.56867983  -0.07717010  1.15264545  1
  Mo  Mo7  1  2.51239579  0.03088875  3.75607015  1
