# generated using pymatgen
data_Mo
_symmetry_space_group_name_H-M   'P 1'
_cell_length_a   4.80292510
_cell_length_b   4.73227440
_cell_length_c   4.77696584
_cell_angle_alpha   91.64965702
_cell_angle_beta   85.41080867
_cell_angle_gamma   81.14289678
_symmetry_Int_Tables_number   1
_chemical_formula_structural   Mo
_chemical_formula_sum   Mo8
_cell_volume   106.84268044
_cell_formula_units_Z   8
loop_
 _symmetry_equiv_pos_site_id
 _symmetry_equiv_pos_as_xyz
  1  'x, y, z'
loop_
 _atom_site_type_symbol
 _atom_site_label
 _atom_site_symmetry_multiplicity
 _atom_site_fract_x
 _atom_site_fract_y
 _atom_site_fract_z
 _atom_site_occupancy
  Mo  Mo0  1  0.00000000  0.00000000  0.00000000  1
  Mo  Mo1  1  2.71286016  2.43102987  2.47855099  1
  Mo  Mo2  1  1.37268417  2.45485498  0.06838553  1
  Mo  Mo3  1  3.76581890  2.64607508  0.12637986  1
  Mo  Mo4  1  0.23166702  1.06018730  2.40086248  1
  Mo  Mo5  1  0.40778381  3.41943224  2.44025086  1
  Mo  Mo6  1  2.46493905  0.13150251  1.24857847  1
  Mo  Mo7  1  2.60854767  0.01206735  3.62974677  1
