# generated using pymatgen
data_Mo
_symmetry_space_group_name_H-M   'P 1'
_cell_length_a   5.02457048
_cell_length_b   5.17737939
_cell_length_c   5.16533656
_cell_angle_alpha   96.60572675
_cell_angle_beta   82.59103797
_cell_angle_gamma   96.61203692
_symmetry_Int_Tables_number   1
_chemical_formula_structural   Mo
_chemical_formula_sum   Mo8
_cell_volume   131.67705332
_cell_formula_units_Z   8
loop_
 _symmetry_equiv_pos_site_id
 _symmetry_equiv_pos_as_xyz
  1  'x, y, z'
loop_
 _atom_site_type_symbol
 _atom_site_label
 _atom_site_symmetry_multiplicity
 _atom_site_fract_x
 _atom_site_fract_y
 _atom_site_fract_z
 _atom_site_occupancy
  Mo  Mo0  1  0.00000000  0.00000000  0.00000000  1
  Mo  Mo1  1  2.55702802  2.37439321  2.47878729  1
  Mo  Mo2  1  1.07313577  2.52169975  -0.14058631  1
  Mo  Mo3  1  3.58123573  2.41426565  -0.04327433  1
  Mo  Mo4  1  0.13938515  1.19411891  2.47609646  1
  Mo  Mo5  1  -0.04152906  3.76953572  2.28685415  1
  Mo  Mo6  1  2.62302109  -0.15422885  1.38267079  1
  Mo  Mo7  1  2.85286335  -0.24781834  3.95338839  1
