# generated using pymatgen
data_Mo
_symmetry_space_group_name_H-M   'P 1'
_cell_length_a   5.15141041
_cell_length_b   5.21681568
_cell_length_c   5.17423813
_cell_angle_alpha   59.84379527
_cell_angle_beta   60.12456423
_cell_angle_gamma   61.45615472
_symmetry_Int_Tables_number   1
_chemical_formula_structural   Mo
_chemical_formula_sum   Mo6
_cell_volume   99.33544326
_cell_formula_units_Z   6
loop_
 _symmetry_equiv_pos_site_id
 _symmetry_equiv_pos_as_xyz
  1  'x, y, z'
loop_
 _atom_site_type_symbol
 _atom_site_label
 _atom_site_symmetry_multiplicity
 _atom_site_fract_x
 _atom_site_fract_y
 _atom_site_fract_z
 _atom_site_occupancy
  Mo  Mo0  1  0.91471809  0.90714898  0.91571132  1
  Mo  Mo1  1  2.76485913  0.87976580  2.75419432  1
  Mo  Mo2  1  2.75460790  2.72583297  0.93518220  1
  Mo  Mo3  1  0.88355959  2.74444416  2.72060271  1
  Mo  Mo4  1  3.65887235  3.62859596  3.66284527  1
  Mo  Mo5  1  5.48830852  5.44289393  5.49426790  1
