# generated using pymatgen
data_Mo
_symmetry_space_group_name_H-M   'P 1'
_cell_length_a   5.16930294
_cell_length_b   5.18628259
_cell_length_c   5.16974112
_cell_angle_alpha   59.07103171
_cell_angle_beta   59.11651909
_cell_angle_gamma   59.31606665
_symmetry_Int_Tables_number   1
_chemical_formula_structural   Mo
_chemical_formula_sum   Mo6
_cell_volume   96.14416875
_cell_formula_units_Z   6
loop_
 _symmetry_equiv_pos_site_id
 _symmetry_equiv_pos_as_xyz
  1  'x, y, z'
loop_
 _atom_site_type_symbol
 _atom_site_label
 _atom_site_symmetry_multiplicity
 _atom_site_fract_x
 _atom_site_fract_y
 _atom_site_fract_z
 _atom_site_occupancy
  Mo  Mo0  1  0.92842295  0.91012717  0.92300167  1
  Mo  Mo1  1  2.79004716  0.91327607  2.72819615  1
  Mo  Mo2  1  2.74541760  2.74835907  0.95446159  1
  Mo  Mo3  1  0.96349585  2.70925503  2.77835393  1
  Mo  Mo4  1  3.71369177  3.64050867  3.69200667  1
  Mo  Mo5  1  5.57053766  5.46076299  5.53801001  1
