# generated using pymatgen
data_Mo
_symmetry_space_group_name_H-M   'P 1'
_cell_length_a   5.19812944
_cell_length_b   5.17904572
_cell_length_c   5.22504245
_cell_angle_alpha   60.57156806
_cell_angle_beta   58.93074149
_cell_angle_gamma   61.11481985
_symmetry_Int_Tables_number   1
_chemical_formula_structural   Mo
_chemical_formula_sum   Mo6
_cell_volume   99.85113622
_cell_formula_units_Z   6
loop_
 _symmetry_equiv_pos_site_id
 _symmetry_equiv_pos_as_xyz
  1  'x, y, z'
loop_
 _atom_site_type_symbol
 _atom_site_label
 _atom_site_symmetry_multiplicity
 _atom_site_fract_x
 _atom_site_fract_y
 _atom_site_fract_z
 _atom_site_occupancy
  Mo  Mo0  1  0.92240435  0.92624166  0.90500663  1
  Mo  Mo1  1  2.76771668  0.89829641  2.72150604  1
  Mo  Mo2  1  2.75370726  2.78946293  0.90320130  1
  Mo  Mo3  1  0.93540650  2.79593229  2.71033910  1
  Mo  Mo4  1  3.68961740  3.70496666  3.62002654  1
  Mo  Mo5  1  5.53442609  5.55744997  5.43003980  1
