# generated using pymatgen
data_Mo
_symmetry_space_group_name_H-M   'P 1'
_cell_length_a   5.20712116
_cell_length_b   5.20494305
_cell_length_c   5.15570166
_cell_angle_alpha   58.84930310
_cell_angle_beta   58.53515321
_cell_angle_gamma   60.29169209
_symmetry_Int_Tables_number   1
_chemical_formula_structural   Mo
_chemical_formula_sum   Mo6
_cell_volume   97.00952371
_cell_formula_units_Z   6
loop_
 _symmetry_equiv_pos_site_id
 _symmetry_equiv_pos_as_xyz
  1  'x, y, z'
loop_
 _atom_site_type_symbol
 _atom_site_label
 _atom_site_symmetry_multiplicity
 _atom_site_fract_x
 _atom_site_fract_y
 _atom_site_fract_z
 _atom_site_occupancy
  Mo  Mo0  1  0.92349849  0.92614421  0.91823304  1
  Mo  Mo1  1  2.79478685  0.93851688  2.72681945  1
  Mo  Mo2  1  2.73051398  2.76426011  0.95483750  1
  Mo  Mo3  1  0.93918862  2.78023247  2.74597433  1
  Mo  Mo4  1  3.69399397  3.70457683  3.67293216  1
  Mo  Mo5  1  5.54099095  5.55686525  5.50939824  1
