# generated using pymatgen
data_Mo
_symmetry_space_group_name_H-M   'P 1'
_cell_length_a   5.22776636
_cell_length_b   5.18381706
_cell_length_c   5.22424312
_cell_angle_alpha   60.89668250
_cell_angle_beta   60.05889251
_cell_angle_gamma   60.71633479
_symmetry_Int_Tables_number   1
_chemical_formula_structural   Mo
_chemical_formula_sum   Mo6
_cell_volume   101.35789453
_cell_formula_units_Z   6
loop_
 _symmetry_equiv_pos_site_id
 _symmetry_equiv_pos_as_xyz
  1  'x, y, z'
loop_
 _atom_site_type_symbol
 _atom_site_label
 _atom_site_symmetry_multiplicity
 _atom_site_fract_x
 _atom_site_fract_y
 _atom_site_fract_z
 _atom_site_occupancy
  Mo  Mo0  1  0.92589765  0.91715880  0.90923917  1
  Mo  Mo1  1  2.76145279  0.88239391  2.73886170  1
  Mo  Mo2  1  2.78007129  2.75688006  0.88384470  1
  Mo  Mo3  1  0.93975950  2.78083765  2.74196782  1
  Mo  Mo4  1  3.70359061  3.66863521  3.63695670  1
  Mo  Mo5  1  5.55538593  5.50295282  5.45543504  1
