# generated using pymatgen
data_Mo
_symmetry_space_group_name_H-M   'P 1'
_cell_length_a   5.12594766
_cell_length_b   5.17896317
_cell_length_c   5.10549501
_cell_angle_alpha   59.32087730
_cell_angle_beta   59.63349238
_cell_angle_gamma   60.57328279
_symmetry_Int_Tables_number   1
_chemical_formula_structural   Mo
_chemical_formula_sum   Mo6
_cell_volume   95.47102397
_cell_formula_units_Z   6
loop_
 _symmetry_equiv_pos_site_id
 _symmetry_equiv_pos_as_xyz
  1  'x, y, z'
loop_
 _atom_site_type_symbol
 _atom_site_label
 _atom_site_symmetry_multiplicity
 _atom_site_fract_x
 _atom_site_fract_y
 _atom_site_fract_z
 _atom_site_occupancy
  Mo  Mo0  1  0.91375283  0.90004088  0.91352420  1
  Mo  Mo1  1  2.77075255  0.88812743  2.71819176  1
  Mo  Mo2  1  2.71454186  2.70915758  0.94137138  1
  Mo  Mo3  1  0.91097538  2.70300119  2.73510629  1
  Mo  Mo4  1  3.65501130  3.60016355  3.65409682  1
  Mo  Mo5  1  5.48251696  5.40024532  5.48114522  1
