# generated using pymatgen
data_Mo
_symmetry_space_group_name_H-M   'P 1'
_cell_length_a   5.19432370
_cell_length_b   5.11107263
_cell_length_c   5.11735748
_cell_angle_alpha   59.54152089
_cell_angle_beta   59.72186885
_cell_angle_gamma   59.53790472
_symmetry_Int_Tables_number   1
_chemical_formula_structural   Mo
_chemical_formula_sum   Mo6
_cell_volume   95.19337001
_cell_formula_units_Z   6
loop_
 _symmetry_equiv_pos_site_id
 _symmetry_equiv_pos_as_xyz
  1  'x, y, z'
loop_
 _atom_site_type_symbol
 _atom_site_label
 _atom_site_symmetry_multiplicity
 _atom_site_fract_x
 _atom_site_fract_y
 _atom_site_fract_z
 _atom_site_occupancy
  Mo  Mo0  1  0.90697785  0.92332063  0.90418212  1
  Mo  Mo1  1  2.71220927  0.95579593  2.71273147  1
  Mo  Mo2  1  2.71991252  2.72887280  0.89489507  1
  Mo  Mo3  1  0.91672323  2.77857574  2.72164827  1
  Mo  Mo4  1  3.62791143  3.69328255  3.61672846  1
  Mo  Mo5  1  5.44186715  5.53992382  5.42509269  1
