# generated using pymatgen
data_Mo
_symmetry_space_group_name_H-M   'P 1'
_cell_length_a   5.23495557
_cell_length_b   5.16948060
_cell_length_c   5.20496049
_cell_angle_alpha   58.82162190
_cell_angle_beta   60.09985162
_cell_angle_gamma   59.68261788
_symmetry_Int_Tables_number   1
_chemical_formula_structural   Mo
_chemical_formula_sum   Mo6
_cell_volume   98.52115130
_cell_formula_units_Z   6
loop_
 _symmetry_equiv_pos_site_id
 _symmetry_equiv_pos_as_xyz
  1  'x, y, z'
loop_
 _atom_site_type_symbol
 _atom_site_label
 _atom_site_symmetry_multiplicity
 _atom_site_fract_x
 _atom_site_fract_y
 _atom_site_fract_z
 _atom_site_occupancy
  Mo  Mo0  1  0.93449586  0.92433483  0.90996997  1
  Mo  Mo1  1  2.78537744  0.94962946  2.71398770  1
  Mo  Mo2  1  2.79959921  2.73933310  0.90135804  1
  Mo  Mo3  1  0.95649431  2.78138126  2.75444403  1
  Mo  Mo4  1  3.73798341  3.69733933  3.63987987  1
  Mo  Mo5  1  5.60697511  5.54600900  5.45981980  1
