# generated using pymatgen
data_Mo
_symmetry_space_group_name_H-M   'P 1'
_cell_length_a   5.11587584
_cell_length_b   5.12376717
_cell_length_c   5.19708842
_cell_angle_alpha   62.04479963
_cell_angle_beta   60.55091547
_cell_angle_gamma   60.96632630
_symmetry_Int_Tables_number   1
_chemical_formula_structural   Mo
_chemical_formula_sum   Mo6
_cell_volume   98.86664714
_cell_formula_units_Z   6
loop_
 _symmetry_equiv_pos_site_id
 _symmetry_equiv_pos_as_xyz
  1  'x, y, z'
loop_
 _atom_site_type_symbol
 _atom_site_label
 _atom_site_symmetry_multiplicity
 _atom_site_fract_x
 _atom_site_fract_y
 _atom_site_fract_z
 _atom_site_occupancy
  Mo  Mo0  1  0.89485842  0.90948227  0.89965468  1
  Mo  Mo1  1  2.69616207  0.87171099  2.72095256  1
  Mo  Mo2  1  2.70003062  2.77835586  0.86653572  1
  Mo  Mo3  1  0.86781626  2.71630903  2.71009446  1
  Mo  Mo4  1  3.57943369  3.63792907  3.59861871  1
  Mo  Mo5  1  5.36915054  5.45689361  5.39792806  1
