# generated using pymatgen
data_Mo
_symmetry_space_group_name_H-M   'P 1'
_cell_length_a   5.18951769
_cell_length_b   5.24919169
_cell_length_c   5.15912083
_cell_angle_alpha   59.92103221
_cell_angle_beta   59.05565104
_cell_angle_gamma   59.81271159
_symmetry_Int_Tables_number   1
_chemical_formula_structural   Mo
_chemical_formula_sum   Mo6
_cell_volume   98.45077269
_cell_formula_units_Z   6
loop_
 _symmetry_equiv_pos_site_id
 _symmetry_equiv_pos_as_xyz
  1  'x, y, z'
loop_
 _atom_site_type_symbol
 _atom_site_label
 _atom_site_symmetry_multiplicity
 _atom_site_fract_x
 _atom_site_fract_y
 _atom_site_fract_z
 _atom_site_occupancy
  Mo  Mo0  1  0.92028428  0.92930803  0.91602045  1
  Mo  Mo1  1  2.77117170  0.94944537  2.77674978  1
  Mo  Mo2  1  2.73524632  2.76234981  0.91442247  1
  Mo  Mo3  1  0.93557196  2.79336100  2.72097094  1
  Mo  Mo4  1  3.68113714  3.71723211  3.66408182  1
  Mo  Mo5  1  5.52170570  5.57584816  5.49612273  1
