# generated using pymatgen
data_Mo
_symmetry_space_group_name_H-M   'P 1'
_cell_length_a   5.16085988
_cell_length_b   5.20174968
_cell_length_c   5.19586754
_cell_angle_alpha   60.13403307
_cell_angle_beta   59.11731958
_cell_angle_gamma   59.42152132
_symmetry_Int_Tables_number   1
_chemical_formula_structural   Mo
_chemical_formula_sum   Mo6
_cell_volume   97.62281759
_cell_formula_units_Z   6
loop_
 _symmetry_equiv_pos_site_id
 _symmetry_equiv_pos_as_xyz
  1  'x, y, z'
loop_
 _atom_site_type_symbol
 _atom_site_label
 _atom_site_symmetry_multiplicity
 _atom_site_fract_x
 _atom_site_fract_y
 _atom_site_fract_z
 _atom_site_occupancy
  Mo  Mo0  1  0.91271774  0.91488875  0.93176548  1
  Mo  Mo1  1  2.73344726  0.90781118  2.78903332  1
  Mo  Mo2  1  2.73315444  2.76802309  0.96587205  1
  Mo  Mo3  1  0.92242247  2.72838700  2.76745299  1
  Mo  Mo4  1  3.65087095  3.65955500  3.72706192  1
  Mo  Mo5  1  5.47630643  5.48933251  5.59059288  1
