# generated using pymatgen
data_Mo
_symmetry_space_group_name_H-M   'P 1'
_cell_length_a   5.22872118
_cell_length_b   5.19751841
_cell_length_c   5.17131666
_cell_angle_alpha   60.46479445
_cell_angle_beta   60.40842141
_cell_angle_gamma   59.29829280
_symmetry_Int_Tables_number   1
_chemical_formula_structural   Mo
_chemical_formula_sum   Mo6
_cell_volume   99.47788840
_cell_formula_units_Z   6
loop_
 _symmetry_equiv_pos_site_id
 _symmetry_equiv_pos_as_xyz
  1  'x, y, z'
loop_
 _atom_site_type_symbol
 _atom_site_label
 _atom_site_symmetry_multiplicity
 _atom_site_fract_x
 _atom_site_fract_y
 _atom_site_fract_z
 _atom_site_occupancy
  Mo  Mo0  1  0.92447473  0.91771170  0.91389511  1
  Mo  Mo1  1  2.77817210  0.92369226  2.73524618  1
  Mo  Mo2  1  2.74161944  2.75680412  0.87710899  1
  Mo  Mo3  1  0.95153159  2.74348554  2.78491064  1
  Mo  Mo4  1  3.69789893  3.67084681  3.65558046  1
  Mo  Mo5  1  5.54684840  5.50627022  5.48337069  1
