# generated using pymatgen
data_Mo
_symmetry_space_group_name_H-M   'P 1'
_cell_length_a   5.25868071
_cell_length_b   5.25886972
_cell_length_c   5.25053124
_cell_angle_alpha   59.31181521
_cell_angle_beta   59.15345171
_cell_angle_gamma   59.86833664
_symmetry_Int_Tables_number   1
_chemical_formula_structural   Mo
_chemical_formula_sum   Mo6
_cell_volume   101.36691549
_cell_formula_units_Z   6
loop_
 _symmetry_equiv_pos_site_id
 _symmetry_equiv_pos_as_xyz
  1  'x, y, z'
loop_
 _atom_site_type_symbol
 _atom_site_label
 _atom_site_symmetry_multiplicity
 _atom_site_fract_x
 _atom_site_fract_y
 _atom_site_fract_z
 _atom_site_occupancy
  Mo  Mo0  1  0.93482142  0.93182855  0.93240635  1
  Mo  Mo1  1  2.79941830  0.93738444  2.78636839  1
  Mo  Mo2  1  2.79356323  2.78559703  0.95772092  1
  Mo  Mo3  1  0.95076836  2.79981836  2.78275508  1
  Mo  Mo4  1  3.73928565  3.72731418  3.72962536  1
  Mo  Mo5  1  5.60892848  5.59097128  5.59443805  1
