# generated using pymatgen
data_Mo
_symmetry_space_group_name_H-M   'P 1'
_cell_length_a   9.48969964
_cell_length_b   9.48969964
_cell_length_c   9.48969964
_cell_angle_alpha   90.00000000
_cell_angle_beta   90.00000000
_cell_angle_gamma   90.00000000
_symmetry_Int_Tables_number   1
_chemical_formula_structural   Mo
_chemical_formula_sum   Mo53
_cell_volume   854.58919962
_cell_formula_units_Z   53
loop_
 _symmetry_equiv_pos_site_id
 _symmetry_equiv_pos_as_xyz
  1  'x, y, z'
loop_
 _atom_site_type_symbol
 _atom_site_label
 _atom_site_symmetry_multiplicity
 _atom_site_fract_x
 _atom_site_fract_y
 _atom_site_fract_z
 _atom_site_occupancy
  Mo  Mo0  1  1.58509411  1.45636615  1.53244795  1
  Mo  Mo1  1  -0.01728044  -0.01724733  3.16824234  1
  Mo  Mo2  1  1.54141098  1.57624445  4.73017694  1
  Mo  Mo3  1  0.04388509  0.00693555  6.40134859  1
  Mo  Mo4  1  1.59222589  1.65230650  7.97961890  1
  Mo  Mo5  1  0.01542824  3.16985591  0.02519888  1
  Mo  Mo6  1  1.60338150  4.76213778  1.53823485  1
  Mo  Mo7  1  0.01174118  3.16566413  3.05700665  1
  Mo  Mo8  1  1.58862510  4.80130935  4.69785259  1
  Mo  Mo9  1  0.08256304  3.14908917  6.26206359  1
  Mo  Mo10  1  1.60716237  4.75137549  7.94566257  1
  Mo  Mo11  1  0.01888106  6.38897664  0.02866237  1
  Mo  Mo12  1  1.52954747  7.86465222  1.55595559  1
  Mo  Mo13  1  -0.01317759  6.28699266  3.17761239  1
  Mo  Mo14  1  1.54840943  8.00163532  4.75976990  1
  Mo  Mo15  1  -0.00567876  6.28756085  6.32833963  1
  Mo  Mo16  1  1.58722166  7.97353687  7.89377006  1
  Mo  Mo17  1  3.17974884  -0.00126111  0.03853921  1
  Mo  Mo18  1  4.77355818  1.53001515  1.53901126  1
  Mo  Mo19  1  3.11264535  0.03949557  3.18358932  1
  Mo  Mo20  1  4.74764100  1.60009028  4.74992577  1
  Mo  Mo21  1  3.23944619  0.00089839  6.37101343  1
  Mo  Mo22  1  4.72225964  1.55614255  7.99846022  1
  Mo  Mo23  1  3.15083022  3.15646226  0.03822008  1
  Mo  Mo24  1  4.72346974  4.66467536  1.56420231  1
  Mo  Mo25  1  3.21794977  3.18630181  3.10983495  1
  Mo  Mo26  1  4.72167572  4.68288764  4.74858942  1
  Mo  Mo27  1  3.19780071  3.19299264  6.30047219  1
  Mo  Mo28  1  4.71024545  4.70063248  7.88911360  1
  Mo  Mo29  1  3.16504187  6.24710461  -0.01152633  1
  Mo  Mo30  1  4.65353408  7.91869423  1.56800503  1
  Mo  Mo31  1  3.19522975  6.28325095  3.11135470  1
  Mo  Mo32  1  4.70552767  7.98517639  4.69756457  1
  Mo  Mo33  1  3.19342545  6.35635515  6.30500150  1
  Mo  Mo34  1  4.80187679  7.96425339  7.93758206  1
  Mo  Mo35  1  6.30760748  -0.01306743  0.01129141  1
  Mo  Mo36  1  7.86074140  1.55580313  1.63458469  1
  Mo  Mo37  1  6.29891859  -0.02051093  3.17878231  1
  Mo  Mo38  1  7.96483289  1.54080187  4.73732593  1
  Mo  Mo39  1  6.32489634  -0.05349197  6.28847200  1
  Mo  Mo40  1  7.88043635  1.58603737  7.95501032  1
  Mo  Mo41  1  6.31599089  3.24023365  -0.03689001  1
  Mo  Mo42  1  7.91745687  4.76940570  1.59153655  1
  Mo  Mo43  1  6.35139367  3.20109062  3.20928000  1
  Mo  Mo44  1  7.82221031  4.74478759  4.72075232  1
  Mo  Mo45  1  6.32592953  3.18318593  6.33537937  1
  Mo  Mo46  1  7.97820511  4.75366810  7.93548897  1
  Mo  Mo47  1  6.32925188  6.28645762  -0.04590293  1
  Mo  Mo48  1  7.86857182  7.89195053  1.59639094  1
  Mo  Mo49  1  6.25238564  6.26960855  3.17217472  1
  Mo  Mo50  1  7.94154834  7.90783091  4.76289403  1
  Mo  Mo51  1  6.31872968  6.31900371  6.28377211  1
  Mo  Mo52  1  7.92779021  8.01388840  7.96698299  1
