# generated using pymatgen
data_Mo
_symmetry_space_group_name_H-M   'P 1'
_cell_length_a   5.23496433
_cell_length_b   5.15668933
_cell_length_c   5.14702448
_cell_angle_alpha   59.09802524
_cell_angle_beta   59.48291276
_cell_angle_gamma   59.31508781
_symmetry_Int_Tables_number   1
_chemical_formula_structural   Mo
_chemical_formula_sum   Mo6
_cell_volume   96.67729612
_cell_formula_units_Z   6
loop_
 _symmetry_equiv_pos_site_id
 _symmetry_equiv_pos_as_xyz
  1  'x, y, z'
loop_
 _atom_site_type_symbol
 _atom_site_label
 _atom_site_symmetry_multiplicity
 _atom_site_fract_x
 _atom_site_fract_y
 _atom_site_fract_z
 _atom_site_occupancy
  Mo  Mo0  1  0.90854629  0.92679150  0.92588862  1
  Mo  Mo1  1  2.71857018  0.95976607  2.76180458  1
  Mo  Mo2  1  2.73274976  2.74189976  0.95096842  1
  Mo  Mo3  1  0.90850413  2.78587469  2.76844733  1
  Mo  Mo4  1  3.63418517  3.70716600  3.70355447  1
  Mo  Mo5  1  5.45127777  5.56074901  5.55533172  1
