# generated using pymatgen
data_Mo
_symmetry_space_group_name_H-M   'P 1'
_cell_length_a   5.11153340
_cell_length_b   5.21097814
_cell_length_c   5.13866384
_cell_angle_alpha   59.43441170
_cell_angle_beta   59.80348059
_cell_angle_gamma   60.12204562
_symmetry_Int_Tables_number   1
_chemical_formula_structural   Mo
_chemical_formula_sum   Mo6
_cell_volume   96.30868011
_cell_formula_units_Z   6
loop_
 _symmetry_equiv_pos_site_id
 _symmetry_equiv_pos_as_xyz
  1  'x, y, z'
loop_
 _atom_site_type_symbol
 _atom_site_label
 _atom_site_symmetry_multiplicity
 _atom_site_fract_x
 _atom_site_fract_y
 _atom_site_fract_z
 _atom_site_occupancy
  Mo  Mo0  1  0.91778144  0.91135635  0.90844005  1
  Mo  Mo1  1  2.78147549  0.92565756  2.72915786  1
  Mo  Mo2  1  2.72602167  2.73665463  0.91290964  1
  Mo  Mo3  1  0.91697299  2.71718220  2.71701290  1
  Mo  Mo4  1  3.67112580  3.64542537  3.63376022  1
  Mo  Mo5  1  5.50668870  5.46813805  5.45064033  1
