# generated using pymatgen
data_Mo
_symmetry_space_group_name_H-M   'P 1'
_cell_length_a   5.16228632
_cell_length_b   5.20513580
_cell_length_c   5.24715348
_cell_angle_alpha   59.65760189
_cell_angle_beta   60.61853133
_cell_angle_gamma   59.84256743
_symmetry_Int_Tables_number   1
_chemical_formula_structural   Mo
_chemical_formula_sum   Mo6
_cell_volume   99.77073991
_cell_formula_units_Z   6
loop_
 _symmetry_equiv_pos_site_id
 _symmetry_equiv_pos_as_xyz
  1  'x, y, z'
loop_
 _atom_site_type_symbol
 _atom_site_label
 _atom_site_symmetry_multiplicity
 _atom_site_fract_x
 _atom_site_fract_y
 _atom_site_fract_z
 _atom_site_occupancy
  Mo  Mo0  1  0.91496847  0.92608805  0.91838381  1
  Mo  Mo1  1  2.75342378  0.95377123  2.76030545  1
  Mo  Mo2  1  2.76507247  2.78626720  0.91646482  1
  Mo  Mo3  1  0.88628302  2.74257794  2.75191635  1
  Mo  Mo4  1  3.65987388  3.70435221  3.67353521  1
  Mo  Mo5  1  5.48981081  5.55652832  5.51030283  1
