# generated using pymatgen
data_Mo
_symmetry_space_group_name_H-M   'P 1'
_cell_length_a   5.13446633
_cell_length_b   5.21196679
_cell_length_c   5.17810144
_cell_angle_alpha   60.02805416
_cell_angle_beta   60.96664611
_cell_angle_gamma   61.00972687
_symmetry_Int_Tables_number   1
_chemical_formula_structural   Mo
_chemical_formula_sum   Mo6
_cell_volume   99.44314715
_cell_formula_units_Z   6
loop_
 _symmetry_equiv_pos_site_id
 _symmetry_equiv_pos_as_xyz
  1  'x, y, z'
loop_
 _atom_site_type_symbol
 _atom_site_label
 _atom_site_symmetry_multiplicity
 _atom_site_fract_x
 _atom_site_fract_y
 _atom_site_fract_z
 _atom_site_occupancy
  Mo  Mo0  1  0.92882325  0.89747491  0.90388047  1
  Mo  Mo1  1  2.79462563  0.86831234  2.72296828  1
  Mo  Mo2  1  2.78400798  2.70330843  0.88293858  1
  Mo  Mo3  1  0.92312910  2.71070361  2.72125643  1
  Mo  Mo4  1  3.71529297  3.58989964  3.61552188  1
  Mo  Mo5  1  5.57293946  5.38484946  5.42328282  1
