# generated using pymatgen
data_Mo
_symmetry_space_group_name_H-M   'P 1'
_cell_length_a   5.13174859
_cell_length_b   5.15706364
_cell_length_c   5.20677227
_cell_angle_alpha   59.28862595
_cell_angle_beta   58.83952001
_cell_angle_gamma   60.24312337
_symmetry_Int_Tables_number   1
_chemical_formula_structural   Mo
_chemical_formula_sum   Mo6
_cell_volume   96.20228788
_cell_formula_units_Z   6
loop_
 _symmetry_equiv_pos_site_id
 _symmetry_equiv_pos_as_xyz
  1  'x, y, z'
loop_
 _atom_site_type_symbol
 _atom_site_label
 _atom_site_symmetry_multiplicity
 _atom_site_fract_x
 _atom_site_fract_y
 _atom_site_fract_z
 _atom_site_occupancy
  Mo  Mo0  1  0.91162981  0.92610119  0.91267506  1
  Mo  Mo1  1  2.74478592  0.94133270  2.72599605  1
  Mo  Mo2  1  2.73078317  2.78809115  0.94864411  1
  Mo  Mo3  1  0.90583958  2.75328443  2.71408527  1
  Mo  Mo4  1  3.64651925  3.70440473  3.65070025  1
  Mo  Mo5  1  5.46977887  5.55660711  5.47605036  1
