# generated using pymatgen
data_Mo
_symmetry_space_group_name_H-M   'P 1'
_cell_length_a   5.19610583
_cell_length_b   5.20470381
_cell_length_c   5.22978612
_cell_angle_alpha   60.24601688
_cell_angle_beta   59.93821920
_cell_angle_gamma   60.63819702
_symmetry_Int_Tables_number   1
_chemical_formula_structural   Mo
_chemical_formula_sum   Mo6
_cell_volume   100.62292850
_cell_formula_units_Z   6
loop_
 _symmetry_equiv_pos_site_id
 _symmetry_equiv_pos_as_xyz
  1  'x, y, z'
loop_
 _atom_site_type_symbol
 _atom_site_label
 _atom_site_symmetry_multiplicity
 _atom_site_fract_x
 _atom_site_fract_y
 _atom_site_fract_z
 _atom_site_occupancy
  Mo  Mo0  1  0.90858983  0.93128290  0.91737789  1
  Mo  Mo1  1  2.72490587  0.93788811  2.78102695  1
  Mo  Mo2  1  2.75831952  2.77956805  0.92016727  1
  Mo  Mo3  1  0.87690340  2.80152417  2.72045096  1
  Mo  Mo4  1  3.63435931  3.72513162  3.66951152  1
  Mo  Mo5  1  5.45153896  5.58769743  5.50426730  1
