# generated using pymatgen
data_Mo
_symmetry_space_group_name_H-M   'P 1'
_cell_length_a   5.22808330
_cell_length_b   5.21055780
_cell_length_c   5.18857712
_cell_angle_alpha   59.71968216
_cell_angle_beta   58.83125323
_cell_angle_gamma   59.98609279
_symmetry_Int_Tables_number   1
_chemical_formula_structural   Mo
_chemical_formula_sum   Mo6
_cell_volume   98.81416116
_cell_formula_units_Z   6
loop_
 _symmetry_equiv_pos_site_id
 _symmetry_equiv_pos_as_xyz
  1  'x, y, z'
loop_
 _atom_site_type_symbol
 _atom_site_label
 _atom_site_symmetry_multiplicity
 _atom_site_fract_x
 _atom_site_fract_y
 _atom_site_fract_z
 _atom_site_occupancy
  Mo  Mo0  1  0.92292333  0.93229528  0.91735335  1
  Mo  Mo1  1  2.77692361  0.94342793  2.74766403  1
  Mo  Mo2  1  2.74055797  2.78336143  0.92692382  1
  Mo  Mo3  1  0.94298174  2.79927761  2.74688566  1
  Mo  Mo4  1  3.69169333  3.72918112  3.66941343  1
  Mo  Mo5  1  5.53753998  5.59377168  5.50412015  1
