# generated using pymatgen
data_Mo
_symmetry_space_group_name_H-M   'P 1'
_cell_length_a   5.25440890
_cell_length_b   5.19526595
_cell_length_c   5.26607887
_cell_angle_alpha   60.11697859
_cell_angle_beta   61.06540044
_cell_angle_gamma   59.72775991
_symmetry_Int_Tables_number   1
_chemical_formula_structural   Mo
_chemical_formula_sum   Mo6
_cell_volume   102.31763990
_cell_formula_units_Z   6
loop_
 _symmetry_equiv_pos_site_id
 _symmetry_equiv_pos_as_xyz
  1  'x, y, z'
loop_
 _atom_site_type_symbol
 _atom_site_label
 _atom_site_symmetry_multiplicity
 _atom_site_fract_x
 _atom_site_fract_y
 _atom_site_fract_z
 _atom_site_occupancy
  Mo  Mo0  1  0.91126685  0.93378959  0.92650210  1
  Mo  Mo1  1  2.73640398  0.95880493  2.77472984  1
  Mo  Mo2  1  2.76743672  2.80122652  0.91203168  1
  Mo  Mo3  1  0.87502725  2.77649569  2.79875319  1
  Mo  Mo4  1  3.64506740  3.73515836  3.70600841  1
  Mo  Mo5  1  5.46760110  5.60273754  5.55901261  1
