# generated using pymatgen
data_Mo
_symmetry_space_group_name_H-M   'P 1'
_cell_length_a   5.13953887
_cell_length_b   5.26392083
_cell_length_c   5.16573580
_cell_angle_alpha   60.12106647
_cell_angle_beta   60.38033262
_cell_angle_gamma   60.97230323
_symmetry_Int_Tables_number   1
_chemical_formula_structural   Mo
_chemical_formula_sum   Mo6
_cell_volume   99.90703696
_cell_formula_units_Z   6
loop_
 _symmetry_equiv_pos_site_id
 _symmetry_equiv_pos_as_xyz
  1  'x, y, z'
loop_
 _atom_site_type_symbol
 _atom_site_label
 _atom_site_symmetry_multiplicity
 _atom_site_fract_x
 _atom_site_fract_y
 _atom_site_fract_z
 _atom_site_occupancy
  Mo  Mo0  1  0.91602139  0.90682095  0.91914439  1
  Mo  Mo1  1  2.77754676  0.88874806  2.77968527  1
  Mo  Mo2  1  2.74711673  2.72843081  0.92497442  1
  Mo  Mo3  1  0.88748627  2.73056776  2.72935108  1
  Mo  Mo4  1  3.66408557  3.62728379  3.67657759  1
  Mo  Mo5  1  5.49612835  5.44092569  5.51486638  1
