# generated using pymatgen
data_Mo
_symmetry_space_group_name_H-M   'P 1'
_cell_length_a   5.15628811
_cell_length_b   5.24669235
_cell_length_c   5.18904990
_cell_angle_alpha   59.18674806
_cell_angle_beta   59.54718437
_cell_angle_gamma   59.74563397
_symmetry_Int_Tables_number   1
_chemical_formula_structural   Mo
_chemical_formula_sum   Mo6
_cell_volume   98.11581640
_cell_formula_units_Z   6
loop_
 _symmetry_equiv_pos_site_id
 _symmetry_equiv_pos_as_xyz
  1  'x, y, z'
loop_
 _atom_site_type_symbol
 _atom_site_label
 _atom_site_symmetry_multiplicity
 _atom_site_fract_x
 _atom_site_fract_y
 _atom_site_fract_z
 _atom_site_occupancy
  Mo  Mo0  1  0.93070269  0.91330269  0.92275937  1
  Mo  Mo1  1  2.78385518  0.91976511  2.77956555  1
  Mo  Mo2  1  2.78512707  2.72775742  0.94334930  1
  Mo  Mo3  1  0.94593654  2.74559628  2.73640070  1
  Mo  Mo4  1  3.72281073  3.65321075  3.69103746  1
  Mo  Mo5  1  5.58421610  5.47981612  5.53655619  1
