# generated using pymatgen
data_Mo
_symmetry_space_group_name_H-M   'P 1'
_cell_length_a   5.18934313
_cell_length_b   5.11319872
_cell_length_c   5.22197768
_cell_angle_alpha   60.00578044
_cell_angle_beta   60.13157902
_cell_angle_gamma   59.69618485
_symmetry_Int_Tables_number   1
_chemical_formula_structural   Mo
_chemical_formula_sum   Mo6
_cell_volume   97.85092084
_cell_formula_units_Z   6
loop_
 _symmetry_equiv_pos_site_id
 _symmetry_equiv_pos_as_xyz
  1  'x, y, z'
loop_
 _atom_site_type_symbol
 _atom_site_label
 _atom_site_symmetry_multiplicity
 _atom_site_fract_x
 _atom_site_fract_y
 _atom_site_fract_z
 _atom_site_occupancy
  Mo  Mo0  1  0.92452438  0.91622080  0.90466277  1
  Mo  Mo1  1  2.72450714  0.91459320  2.72022320  1
  Mo  Mo2  1  2.79816406  2.73457619  0.88675282  1
  Mo  Mo3  1  0.94899949  2.76437618  2.72566337  1
  Mo  Mo4  1  3.69809754  3.66488318  3.61865107  1
  Mo  Mo5  1  5.54714630  5.49732477  5.42797661  1
