# generated using pymatgen
data_Mo
_symmetry_space_group_name_H-M   'P 1'
_cell_length_a   5.15700145
_cell_length_b   5.15763181
_cell_length_c   5.18404668
_cell_angle_alpha   60.26163829
_cell_angle_beta   59.97829441
_cell_angle_gamma   61.43561428
_symmetry_Int_Tables_number   1
_chemical_formula_structural   Mo
_chemical_formula_sum   Mo6
_cell_volume   98.69391694
_cell_formula_units_Z   6
loop_
 _symmetry_equiv_pos_site_id
 _symmetry_equiv_pos_as_xyz
  1  'x, y, z'
loop_
 _atom_site_type_symbol
 _atom_site_label
 _atom_site_symmetry_multiplicity
 _atom_site_fract_x
 _atom_site_fract_y
 _atom_site_fract_z
 _atom_site_occupancy
  Mo  Mo0  1  0.91462436  0.90887688  0.90464771  1
  Mo  Mo1  1  2.74640976  0.87493847  2.71950359  1
  Mo  Mo2  1  2.75592409  2.73321057  0.90726799  1
  Mo  Mo3  1  0.90003664  2.75398912  2.70576236  1
  Mo  Mo4  1  3.65849742  3.63550752  3.61859083  1
  Mo  Mo5  1  5.48774613  5.45326128  5.42788623  1
