# generated using pymatgen
data_Mo
_symmetry_space_group_name_H-M   'P 1'
_cell_length_a   5.19941823
_cell_length_b   5.17912680
_cell_length_c   5.17317171
_cell_angle_alpha   60.76998520
_cell_angle_beta   59.60628550
_cell_angle_gamma   60.71011853
_symmetry_Int_Tables_number   1
_chemical_formula_structural   Mo
_chemical_formula_sum   Mo6
_cell_volume   99.28522815
_cell_formula_units_Z   6
loop_
 _symmetry_equiv_pos_site_id
 _symmetry_equiv_pos_as_xyz
  1  'x, y, z'
loop_
 _atom_site_type_symbol
 _atom_site_label
 _atom_site_symmetry_multiplicity
 _atom_site_fract_x
 _atom_site_fract_y
 _atom_site_fract_z
 _atom_site_occupancy
  Mo  Mo0  1  0.89903993  0.91255864  0.92975531  1
  Mo  Mo1  1  2.71165340  0.87830653  2.77883556  1
  Mo  Mo2  1  2.70817590  2.76095614  0.95942210  1
  Mo  Mo3  1  0.87345018  2.74864784  2.77002949  1
  Mo  Mo4  1  3.59615970  3.65023458  3.71902124  1
  Mo  Mo5  1  5.39423955  5.47535187  5.57853186  1
