# generated using pymatgen
data_Mo
_symmetry_space_group_name_H-M   'P 1'
_cell_length_a   5.11871895
_cell_length_b   5.28974021
_cell_length_c   5.11195774
_cell_angle_alpha   60.00018413
_cell_angle_beta   60.40135838
_cell_angle_gamma   59.98665092
_symmetry_Int_Tables_number   1
_chemical_formula_structural   Mo
_chemical_formula_sum   Mo6
_cell_volume   98.15771237
_cell_formula_units_Z   6
loop_
 _symmetry_equiv_pos_site_id
 _symmetry_equiv_pos_as_xyz
  1  'x, y, z'
loop_
 _atom_site_type_symbol
 _atom_site_label
 _atom_site_symmetry_multiplicity
 _atom_site_fract_x
 _atom_site_fract_y
 _atom_site_fract_z
 _atom_site_occupancy
  Mo  Mo0  1  0.91480188  0.90905628  0.91723061  1
  Mo  Mo1  1  2.78389734  0.92459610  2.78848114  1
  Mo  Mo2  1  2.71935372  2.71916560  0.90605563  1
  Mo  Mo3  1  0.90036208  2.71963223  2.72607752  1
  Mo  Mo4  1  3.65920750  3.63622510  3.66892245  1
  Mo  Mo5  1  5.48881126  5.45433766  5.50338367  1
