# generated using pymatgen
data_Mo
_symmetry_space_group_name_H-M   'P 1'
_cell_length_a   5.20280503
_cell_length_b   5.28194282
_cell_length_c   5.16066648
_cell_angle_alpha   59.39213468
_cell_angle_beta   59.58306155
_cell_angle_gamma   59.82584802
_symmetry_Int_Tables_number   1
_chemical_formula_structural   Mo
_chemical_formula_sum   Mo6
_cell_volume   99.36796468
_cell_formula_units_Z   6
loop_
 _symmetry_equiv_pos_site_id
 _symmetry_equiv_pos_as_xyz
  1  'x, y, z'
loop_
 _atom_site_type_symbol
 _atom_site_label
 _atom_site_symmetry_multiplicity
 _atom_site_fract_x
 _atom_site_fract_y
 _atom_site_fract_z
 _atom_site_occupancy
  Mo  Mo0  1  0.92303241  0.92351467  0.92752885  1
  Mo  Mo1  1  2.79704139  0.94379742  2.78828379  1
  Mo  Mo2  1  2.74135197  2.75426659  0.94098143  1
  Mo  Mo3  1  0.92283350  2.76653862  2.76343671  1
  Mo  Mo4  1  3.69212963  3.69405865  3.71011538  1
  Mo  Mo5  1  5.53819445  5.54108797  5.56517308  1
