# generated using pymatgen
data_Mo
_symmetry_space_group_name_H-M   'P 1'
_cell_length_a   5.19959109
_cell_length_b   5.24934260
_cell_length_c   5.20295130
_cell_angle_alpha   60.95272856
_cell_angle_beta   59.58118266
_cell_angle_gamma   58.88742840
_symmetry_Int_Tables_number   1
_chemical_formula_structural   Mo
_chemical_formula_sum   Mo6
_cell_volume   99.90956266
_cell_formula_units_Z   6
loop_
 _symmetry_equiv_pos_site_id
 _symmetry_equiv_pos_as_xyz
  1  'x, y, z'
loop_
 _atom_site_type_symbol
 _atom_site_label
 _atom_site_symmetry_multiplicity
 _atom_site_fract_x
 _atom_site_fract_y
 _atom_site_fract_z
 _atom_site_occupancy
  Mo  Mo0  1  0.92348300  0.92674535  0.92058595  1
  Mo  Mo1  1  2.77809838  0.93763149  2.77778351  1
  Mo  Mo2  1  2.72836020  2.80005628  0.89230082  1
  Mo  Mo3  1  0.95792244  2.74952971  2.77401736  1
  Mo  Mo4  1  3.69393201  3.70698142  3.68234383  1
  Mo  Mo5  1  5.54089801  5.56047213  5.52351574  1
