# generated using pymatgen
data_Mo
_symmetry_space_group_name_H-M   'P 1'
_cell_length_a   5.21558607
_cell_length_b   5.25087566
_cell_length_c   5.15659152
_cell_angle_alpha   59.11581178
_cell_angle_beta   60.93283080
_cell_angle_gamma   59.77275406
_symmetry_Int_Tables_number   1
_chemical_formula_structural   Mo
_chemical_formula_sum   Mo6
_cell_volume   99.67131485
_cell_formula_units_Z   6
loop_
 _symmetry_equiv_pos_site_id
 _symmetry_equiv_pos_as_xyz
  1  'x, y, z'
loop_
 _atom_site_type_symbol
 _atom_site_label
 _atom_site_symmetry_multiplicity
 _atom_site_fract_x
 _atom_site_fract_y
 _atom_site_fract_z
 _atom_site_occupancy
  Mo  Mo0  1  0.91446574  0.91270486  0.93570501  1
  Mo  Mo1  1  2.76460358  0.93330612  2.79836153  1
  Mo  Mo2  1  2.75493473  2.71824683  0.95305636  1
  Mo  Mo3  1  0.88172183  2.73738107  2.79851716  1
  Mo  Mo4  1  3.65786294  3.65081944  3.74282004  1
  Mo  Mo5  1  5.48679440  5.47622916  5.61423005  1
