# generated using pymatgen
data_Mo
_symmetry_space_group_name_H-M   'P 1'
_cell_length_a   5.21235115
_cell_length_b   5.19705699
_cell_length_c   5.21285136
_cell_angle_alpha   59.05580382
_cell_angle_beta   60.81123458
_cell_angle_gamma   60.27707306
_symmetry_Int_Tables_number   1
_chemical_formula_structural   Mo
_chemical_formula_sum   Mo6
_cell_volume   99.91057380
_cell_formula_units_Z   6
loop_
 _symmetry_equiv_pos_site_id
 _symmetry_equiv_pos_as_xyz
  1  'x, y, z'
loop_
 _atom_site_type_symbol
 _atom_site_label
 _atom_site_symmetry_multiplicity
 _atom_site_fract_x
 _atom_site_fract_y
 _atom_site_fract_z
 _atom_site_occupancy
  Mo  Mo0  1  0.91704586  0.92087214  0.92264981  1
  Mo  Mo1  1  2.77616038  0.94075353  2.73804185  1
  Mo  Mo2  1  2.76011097  2.76381820  0.93340298  1
  Mo  Mo3  1  0.88304970  2.74153318  2.78710381  1
  Mo  Mo4  1  3.66818345  3.68348853  3.69059923  1
  Mo  Mo5  1  5.50227518  5.52523279  5.53589885  1
