# generated using pymatgen
data_Mo
_symmetry_space_group_name_H-M   'P 1'
_cell_length_a   5.19785950
_cell_length_b   5.21900275
_cell_length_c   5.23905027
_cell_angle_alpha   60.96894241
_cell_angle_beta   61.52948602
_cell_angle_gamma   59.95296413
_symmetry_Int_Tables_number   1
_chemical_formula_structural   Mo
_chemical_formula_sum   Mo6
_cell_volume   102.30948976
_cell_formula_units_Z   6
loop_
 _symmetry_equiv_pos_site_id
 _symmetry_equiv_pos_as_xyz
  1  'x, y, z'
loop_
 _atom_site_type_symbol
 _atom_site_label
 _atom_site_symmetry_multiplicity
 _atom_site_fract_x
 _atom_site_fract_y
 _atom_site_fract_z
 _atom_site_occupancy
  Mo  Mo0  1  0.90907180  0.90466389  0.93626269  1
  Mo  Mo1  1  2.72446760  0.87751500  2.81058884  1
  Mo  Mo2  1  2.76772839  2.75054965  0.93260681  1
  Mo  Mo3  1  0.87130659  2.70458257  2.81064322  1
  Mo  Mo4  1  3.63628719  3.61865555  3.74505077  1
  Mo  Mo5  1  5.45443077  5.42798333  5.61757616  1
