# generated using pymatgen
data_Mo
_symmetry_space_group_name_H-M   'P 1'
_cell_length_a   5.26158038
_cell_length_b   5.21049656
_cell_length_c   5.21510230
_cell_angle_alpha   60.52806323
_cell_angle_beta   59.87829543
_cell_angle_gamma   59.43492245
_symmetry_Int_Tables_number   1
_chemical_formula_structural   Mo
_chemical_formula_sum   Mo6
_cell_volume   100.95816328
_cell_formula_units_Z   6
loop_
 _symmetry_equiv_pos_site_id
 _symmetry_equiv_pos_as_xyz
  1  'x, y, z'
loop_
 _atom_site_type_symbol
 _atom_site_label
 _atom_site_symmetry_multiplicity
 _atom_site_fract_x
 _atom_site_fract_y
 _atom_site_fract_z
 _atom_site_occupancy
  Mo  Mo0  1  0.90255174  0.94153525  0.92973862  1
  Mo  Mo1  1  2.71616270  0.97143897  2.79982943  1
  Mo  Mo2  1  2.71992071  2.81141935  0.92459275  1
  Mo  Mo3  1  0.88177878  2.80788843  2.78374814  1
  Mo  Mo4  1  3.61020697  3.76614100  3.71895447  1
  Mo  Mo5  1  5.41531045  5.64921150  5.57843171  1
