# generated using pymatgen
data_Mo
_symmetry_space_group_name_H-M   'P 1'
_cell_length_a   5.21530134
_cell_length_b   5.17623784
_cell_length_c   5.26481215
_cell_angle_alpha   60.73103379
_cell_angle_beta   60.67351939
_cell_angle_gamma   60.29681635
_symmetry_Int_Tables_number   1
_chemical_formula_structural   Mo
_chemical_formula_sum   Mo6
_cell_volume   101.78308591
_cell_formula_units_Z   6
loop_
 _symmetry_equiv_pos_site_id
 _symmetry_equiv_pos_as_xyz
  1  'x, y, z'
loop_
 _atom_site_type_symbol
 _atom_site_label
 _atom_site_symmetry_multiplicity
 _atom_site_fract_x
 _atom_site_fract_y
 _atom_site_fract_z
 _atom_site_occupancy
  Mo  Mo0  1  0.91134351  0.92987375  0.91442134  1
  Mo  Mo1  1  2.72521399  0.93218445  2.76056003  1
  Mo  Mo2  1  2.76927067  2.79457625  0.89090537  1
  Mo  Mo3  1  0.88491990  2.78235555  2.74948401  1
  Mo  Mo4  1  3.64537403  3.71949500  3.65768538  1
  Mo  Mo5  1  5.46806105  5.57924250  5.48652807  1
