# generated using pymatgen
data_Mo
_symmetry_space_group_name_H-M   'P 1'
_cell_length_a   5.19291326
_cell_length_b   5.14672354
_cell_length_c   5.18535496
_cell_angle_alpha   59.95404868
_cell_angle_beta   60.06944746
_cell_angle_gamma   59.10746454
_symmetry_Int_Tables_number   1
_chemical_formula_structural   Mo
_chemical_formula_sum   Mo6
_cell_volume   97.33414908
_cell_formula_units_Z   6
loop_
 _symmetry_equiv_pos_site_id
 _symmetry_equiv_pos_as_xyz
  1  'x, y, z'
loop_
 _atom_site_type_symbol
 _atom_site_label
 _atom_site_symmetry_multiplicity
 _atom_site_fract_x
 _atom_site_fract_y
 _atom_site_fract_z
 _atom_site_occupancy
  Mo  Mo0  1  0.90391214  0.91775438  0.92858608  1
  Mo  Mo1  1  2.70515677  0.93258538  2.76638058  1
  Mo  Mo2  1  2.72611486  2.76200742  0.94545222  1
  Mo  Mo3  1  0.89611335  2.72968783  2.78826975  1
  Mo  Mo4  1  3.61564855  3.67101750  3.71434431  1
  Mo  Mo5  1  5.42347284  5.50652625  5.57151647  1
