# generated using pymatgen
data_Mo
_symmetry_space_group_name_H-M   'P 1'
_cell_length_a   5.14593545
_cell_length_b   5.19508031
_cell_length_c   5.20900524
_cell_angle_alpha   58.69767457
_cell_angle_beta   59.84294330
_cell_angle_gamma   58.65953924
_symmetry_Int_Tables_number   1
_chemical_formula_structural   Mo
_chemical_formula_sum   Mo6
_cell_volume   96.34531817
_cell_formula_units_Z   6
loop_
 _symmetry_equiv_pos_site_id
 _symmetry_equiv_pos_as_xyz
  1  'x, y, z'
loop_
 _atom_site_type_symbol
 _atom_site_label
 _atom_site_symmetry_multiplicity
 _atom_site_fract_x
 _atom_site_fract_y
 _atom_site_fract_z
 _atom_site_occupancy
  Mo  Mo0  1  0.93244994  0.91424786  0.92131512  1
  Mo  Mo1  1  2.76560239  0.94708125  2.76133927  1
  Mo  Mo2  1  2.80084185  2.72871034  0.93779052  1
  Mo  Mo3  1  0.96070528  2.72394338  2.75007608  1
  Mo  Mo4  1  3.72979973  3.65699141  3.68526050  1
  Mo  Mo5  1  5.59469959  5.48548712  5.52789075  1
