# generated using pymatgen
data_Mo
_symmetry_space_group_name_H-M   'P 1'
_cell_length_a   5.23307939
_cell_length_b   5.23777337
_cell_length_c   5.22621363
_cell_angle_alpha   60.07562000
_cell_angle_beta   59.58902861
_cell_angle_gamma   59.40181985
_symmetry_Int_Tables_number   1
_chemical_formula_structural   Mo
_chemical_formula_sum   Mo6
_cell_volume   100.56872010
_cell_formula_units_Z   6
loop_
 _symmetry_equiv_pos_site_id
 _symmetry_equiv_pos_as_xyz
  1  'x, y, z'
loop_
 _atom_site_type_symbol
 _atom_site_label
 _atom_site_symmetry_multiplicity
 _atom_site_fract_x
 _atom_site_fract_y
 _atom_site_fract_z
 _atom_site_occupancy
  Mo  Mo0  1  0.93543489  0.92082239  0.92505883  1
  Mo  Mo1  1  2.80747151  0.91516544  2.75645567  1
  Mo  Mo2  1  2.76865996  2.78297077  0.92099634  1
  Mo  Mo3  1  0.97191278  2.74762050  2.79795978  1
  Mo  Mo4  1  3.74173957  3.68328955  3.70023531  1
  Mo  Mo5  1  5.61260935  5.52493433  5.55035296  1
