# generated using pymatgen
data_Mo
_symmetry_space_group_name_H-M   'P 1'
_cell_length_a   5.15432239
_cell_length_b   5.23068688
_cell_length_c   5.27124505
_cell_angle_alpha   60.26266738
_cell_angle_beta   61.02716538
_cell_angle_gamma   60.41557724
_symmetry_Int_Tables_number   1
_chemical_formula_structural   Mo
_chemical_formula_sum   Mo6
_cell_volume   101.77176498
_cell_formula_units_Z   6
loop_
 _symmetry_equiv_pos_site_id
 _symmetry_equiv_pos_as_xyz
  1  'x, y, z'
loop_
 _atom_site_type_symbol
 _atom_site_label
 _atom_site_symmetry_multiplicity
 _atom_site_fract_x
 _atom_site_fract_y
 _atom_site_fract_z
 _atom_site_occupancy
  Mo  Mo0  1  0.91893714  0.92238467  0.91441429  1
  Mo  Mo1  1  2.76382749  0.92918790  2.76815500  1
  Mo  Mo2  1  2.78464965  2.78390412  0.89522424  1
  Mo  Mo3  1  0.88408288  2.74360069  2.73752077  1
  Mo  Mo4  1  3.67574859  3.68953869  3.65765715  1
  Mo  Mo5  1  5.51362289  5.53430805  5.48648573  1
