# generated using pymatgen
data_Mo
_symmetry_space_group_name_H-M   'P 1'
_cell_length_a   5.17353775
_cell_length_b   5.29681113
_cell_length_c   5.24629375
_cell_angle_alpha   60.56816702
_cell_angle_beta   59.32256654
_cell_angle_gamma   59.81682885
_symmetry_Int_Tables_number   1
_chemical_formula_structural   Mo
_chemical_formula_sum   Mo6
_cell_volume   101.40831169
_cell_formula_units_Z   6
loop_
 _symmetry_equiv_pos_site_id
 _symmetry_equiv_pos_as_xyz
  1  'x, y, z'
loop_
 _atom_site_type_symbol
 _atom_site_label
 _atom_site_symmetry_multiplicity
 _atom_site_fract_x
 _atom_site_fract_y
 _atom_site_fract_z
 _atom_site_occupancy
  Mo  Mo0  1  0.93413614  0.92942771  0.91662932  1
  Mo  Mo1  1  2.80875857  0.93165457  2.78741467  1
  Mo  Mo2  1  2.77161317  2.80138598  0.89792234  1
  Mo  Mo3  1  0.95858124  2.77295341  2.73106825  1
  Mo  Mo4  1  3.73654456  3.71771083  3.66651728  1
  Mo  Mo5  1  5.60481684  5.57656625  5.49977593  1
