# generated using pymatgen
data_Mo
_symmetry_space_group_name_H-M   'P 1'
_cell_length_a   5.19836475
_cell_length_b   5.19889094
_cell_length_c   5.18988533
_cell_angle_alpha   60.39876608
_cell_angle_beta   59.23916368
_cell_angle_gamma   60.22911188
_symmetry_Int_Tables_number   1
_chemical_formula_structural   Mo
_chemical_formula_sum   Mo6
_cell_volume   99.05587525
_cell_formula_units_Z   6
loop_
 _symmetry_equiv_pos_site_id
 _symmetry_equiv_pos_as_xyz
  1  'x, y, z'
loop_
 _atom_site_type_symbol
 _atom_site_label
 _atom_site_symmetry_multiplicity
 _atom_site_fract_x
 _atom_site_fract_y
 _atom_site_fract_z
 _atom_site_occupancy
  Mo  Mo0  1  0.89903455  0.93191114  0.92506174  1
  Mo  Mo1  1  2.70635661  0.94029099  2.79338545  1
  Mo  Mo2  1  2.71294706  2.78745233  0.94545137  1
  Mo  Mo3  1  0.87393823  2.79563461  2.73659534  1
  Mo  Mo4  1  3.59613823  3.72764453  3.70024696  1
  Mo  Mo5  1  5.39420735  5.59146679  5.55037044  1
