# generated using pymatgen
data_Mo
_symmetry_space_group_name_H-M   'P 1'
_cell_length_a   5.20052360
_cell_length_b   5.17884637
_cell_length_c   5.21400674
_cell_angle_alpha   59.89032301
_cell_angle_beta   59.08729613
_cell_angle_gamma   61.11503800
_symmetry_Int_Tables_number   1
_chemical_formula_structural   Mo
_chemical_formula_sum   Mo6
_cell_volume   99.30330516
_cell_formula_units_Z   6
loop_
 _symmetry_equiv_pos_site_id
 _symmetry_equiv_pos_as_xyz
  1  'x, y, z'
loop_
 _atom_site_type_symbol
 _atom_site_label
 _atom_site_symmetry_multiplicity
 _atom_site_fract_x
 _atom_site_fract_y
 _atom_site_fract_z
 _atom_site_occupancy
  Mo  Mo0  1  0.92112234  0.91753916  0.91721220  1
  Mo  Mo1  1  2.74576894  0.88521478  2.75425666  1
  Mo  Mo2  1  2.77961338  2.74554282  0.94688050  1
  Mo  Mo3  1  0.92247407  2.79201649  2.71934825  1
  Mo  Mo4  1  3.68448936  3.67015663  3.66884881  1
  Mo  Mo5  1  5.52673405  5.50523494  5.50327322  1
