# generated using pymatgen
data_Mo
_symmetry_space_group_name_H-M   'P 1'
_cell_length_a   5.15907655
_cell_length_b   5.15485873
_cell_length_c   5.27398799
_cell_angle_alpha   60.04148635
_cell_angle_beta   60.29751199
_cell_angle_gamma   59.98252833
_symmetry_Int_Tables_number   1
_chemical_formula_structural   Mo
_chemical_formula_sum   Mo6
_cell_volume   99.41657254
_cell_formula_units_Z   6
loop_
 _symmetry_equiv_pos_site_id
 _symmetry_equiv_pos_as_xyz
  1  'x, y, z'
loop_
 _atom_site_type_symbol
 _atom_site_label
 _atom_site_symmetry_multiplicity
 _atom_site_fract_x
 _atom_site_fract_y
 _atom_site_fract_z
 _atom_site_occupancy
  Mo  Mo0  1  0.91726432  0.92054335  0.91554977  1
  Mo  Mo1  1  2.73662602  0.92107388  2.74121810  1
  Mo  Mo2  1  2.77926040  2.78781382  0.91852676  1
  Mo  Mo3  1  0.90496378  2.73491571  2.74910352  1
  Mo  Mo4  1  3.66905725  3.68217338  3.66219907  1
  Mo  Mo5  1  5.50358588  5.52326008  5.49329861  1
