# generated using pymatgen
data_Mo
_symmetry_space_group_name_H-M   'P 1'
_cell_length_a   5.20111394
_cell_length_b   5.09366620
_cell_length_c   5.13568701
_cell_angle_alpha   60.34829500
_cell_angle_beta   59.31353401
_cell_angle_gamma   60.09543098
_symmetry_Int_Tables_number   1
_chemical_formula_structural   Mo
_chemical_formula_sum   Mo6
_cell_volume   96.01425508
_cell_formula_units_Z   6
loop_
 _symmetry_equiv_pos_site_id
 _symmetry_equiv_pos_as_xyz
  1  'x, y, z'
loop_
 _atom_site_type_symbol
 _atom_site_label
 _atom_site_symmetry_multiplicity
 _atom_site_fract_x
 _atom_site_fract_y
 _atom_site_fract_z
 _atom_site_occupancy
  Mo  Mo0  1  0.90656823  0.91843735  0.90442185  1
  Mo  Mo1  1  2.70848959  0.91254193  2.70425615  1
  Mo  Mo2  1  2.71304988  2.74338111  0.89945815  1
  Mo  Mo3  1  0.92443817  2.77313845  2.72723864  1
  Mo  Mo4  1  3.62627294  3.67374943  3.61768740  1
  Mo  Mo5  1  5.43940940  5.51062413  5.42653110  1
