# generated using pymatgen
data_Mo
_symmetry_space_group_name_H-M   'P 1'
_cell_length_a   5.17714920
_cell_length_b   5.17342256
_cell_length_c   5.20304645
_cell_angle_alpha   59.28479371
_cell_angle_beta   60.50782264
_cell_angle_gamma   60.12751898
_symmetry_Int_Tables_number   1
_chemical_formula_structural   Mo
_chemical_formula_sum   Mo6
_cell_volume   98.45681397
_cell_formula_units_Z   6
loop_
 _symmetry_equiv_pos_site_id
 _symmetry_equiv_pos_as_xyz
  1  'x, y, z'
loop_
 _atom_site_type_symbol
 _atom_site_label
 _atom_site_symmetry_multiplicity
 _atom_site_fract_x
 _atom_site_fract_y
 _atom_site_fract_z
 _atom_site_occupancy
  Mo  Mo0  1  0.93241248  0.90264601  0.91474473  1
  Mo  Mo1  1  2.78392646  0.88838927  2.72105808  1
  Mo  Mo2  1  2.79854558  2.71522744  0.91908930  1
  Mo  Mo3  1  0.94441528  2.71490538  2.76306568  1
  Mo  Mo4  1  3.72964988  3.61058406  3.65897889  1
  Mo  Mo5  1  5.59447483  5.41587608  5.48846833  1
