# generated using pymatgen
data_Mo
_symmetry_space_group_name_H-M   'P 1'
_cell_length_a   5.13826811
_cell_length_b   5.21508083
_cell_length_c   5.27169094
_cell_angle_alpha   59.93567620
_cell_angle_beta   59.19801535
_cell_angle_gamma   59.65773841
_symmetry_Int_Tables_number   1
_chemical_formula_structural   Mo
_chemical_formula_sum   Mo6
_cell_volume   98.96477685
_cell_formula_units_Z   6
loop_
 _symmetry_equiv_pos_site_id
 _symmetry_equiv_pos_as_xyz
  1  'x, y, z'
loop_
 _atom_site_type_symbol
 _atom_site_label
 _atom_site_symmetry_multiplicity
 _atom_site_fract_x
 _atom_site_fract_y
 _atom_site_fract_z
 _atom_site_occupancy
  Mo  Mo0  1  0.93613695  0.90813413  0.92603099  1
  Mo  Mo1  1  2.77859892  0.87885101  2.77095466  1
  Mo  Mo2  1  2.80493540  2.76673644  0.95554580  1
  Mo  Mo3  1  0.96942428  2.71135147  2.75571648  1
  Mo  Mo4  1  3.74454778  3.63253652  3.70412397  1
  Mo  Mo5  1  5.61682167  5.44880478  5.55618595  1
