# generated using pymatgen
data_Mo
_symmetry_space_group_name_H-M   'P 1'
_cell_length_a   5.68219105
_cell_length_b   4.83619527
_cell_length_c   4.75317816
_cell_angle_alpha   55.87918333
_cell_angle_beta   54.82564088
_cell_angle_gamma   56.59765806
_symmetry_Int_Tables_number   1
_chemical_formula_structural   Mo
_chemical_formula_sum   Mo6
_cell_volume   83.24926296
_cell_formula_units_Z   6
loop_
 _symmetry_equiv_pos_site_id
 _symmetry_equiv_pos_as_xyz
  1  'x, y, z'
loop_
 _atom_site_type_symbol
 _atom_site_label
 _atom_site_symmetry_multiplicity
 _atom_site_fract_x
 _atom_site_fract_y
 _atom_site_fract_z
 _atom_site_occupancy
  Mo  Mo0  1  0.82702518  0.95763451  0.99188430  1
  Mo  Mo1  1  2.45825486  1.05834317  2.77405815  1
  Mo  Mo2  1  2.47891645  2.65441082  1.19283465  1
  Mo  Mo3  1  0.85200491  2.99068763  2.97629726  1
  Mo  Mo4  1  3.30810069  3.83053806  3.96753718  1
  Mo  Mo5  1  4.96215104  5.74580710  5.95130578  1
