# generated using pymatgen
data_Mo
_symmetry_space_group_name_H-M   'P 1'
_cell_length_a   5.20048746
_cell_length_b   5.18841723
_cell_length_c   5.63175744
_cell_angle_alpha   54.42989690
_cell_angle_beta   55.43786095
_cell_angle_gamma   56.89854960
_symmetry_Int_Tables_number   1
_chemical_formula_structural   Mo
_chemical_formula_sum   Mo6
_cell_volume   96.34478795
_cell_formula_units_Z   6
loop_
 _symmetry_equiv_pos_site_id
 _symmetry_equiv_pos_as_xyz
  1  'x, y, z'
loop_
 _atom_site_type_symbol
 _atom_site_label
 _atom_site_symmetry_multiplicity
 _atom_site_fract_x
 _atom_site_fract_y
 _atom_site_fract_z
 _atom_site_occupancy
  Mo  Mo0  1  0.93487347  1.02492397  0.96186540  1
  Mo  Mo1  1  2.74858267  1.21573459  2.80685011  1
  Mo  Mo2  1  2.86565930  3.06540774  1.15594012  1
  Mo  Mo3  1  0.92987234  2.89332542  2.77026757  1
  Mo  Mo4  1  3.73949390  4.09969586  3.84746160  1
  Mo  Mo5  1  5.60924085  6.14954380  5.77119241  1
