# generated using pymatgen
data_Mo
_symmetry_space_group_name_H-M   'P 1'
_cell_length_a   5.01048690
_cell_length_b   4.95223345
_cell_length_c   4.88213543
_cell_angle_alpha   63.68051922
_cell_angle_beta   54.81458814
_cell_angle_gamma   58.48596147
_symmetry_Int_Tables_number   1
_chemical_formula_structural   Mo
_chemical_formula_sum   Mo6
_cell_volume   82.62903403
_cell_formula_units_Z   6
loop_
 _symmetry_equiv_pos_site_id
 _symmetry_equiv_pos_as_xyz
  1  'x, y, z'
loop_
 _atom_site_type_symbol
 _atom_site_label
 _atom_site_symmetry_multiplicity
 _atom_site_fract_x
 _atom_site_fract_y
 _atom_site_fract_z
 _atom_site_occupancy
  Mo  Mo0  1  0.85955634  0.89077618  0.89238853  1
  Mo  Mo1  1  2.48594831  0.83465422  2.75862901  1
  Mo  Mo2  1  2.54373336  2.65766636  0.91379904  1
  Mo  Mo3  1  0.98721270  2.74311265  2.57429167  1
  Mo  Mo4  1  3.43822535  3.56310470  3.56955413  1
  Mo  Mo5  1  5.15733803  5.34465706  5.35433118  1
