# generated using pymatgen
data_Mo
_symmetry_space_group_name_H-M   'P 1'
_cell_length_a   4.97425639
_cell_length_b   5.50683728
_cell_length_c   5.25351849
_cell_angle_alpha   66.92596014
_cell_angle_beta   60.57028494
_cell_angle_gamma   65.30450051
_symmetry_Int_Tables_number   1
_chemical_formula_structural   Mo
_chemical_formula_sum   Mo6
_cell_volume   110.66095177
_cell_formula_units_Z   6
loop_
 _symmetry_equiv_pos_site_id
 _symmetry_equiv_pos_as_xyz
  1  'x, y, z'
loop_
 _atom_site_type_symbol
 _atom_site_label
 _atom_site_symmetry_multiplicity
 _atom_site_fract_x
 _atom_site_fract_y
 _atom_site_fract_z
 _atom_site_occupancy
  Mo  Mo0  1  0.96498622  0.88117469  0.83500914  1
  Mo  Mo1  1  2.97762302  0.67424143  2.70257063  1
  Mo  Mo2  1  2.76478965  2.78275415  0.62389945  1
  Mo  Mo3  1  1.01249088  2.71122724  2.51859389  1
  Mo  Mo4  1  3.85994489  3.52469876  3.34003657  1
  Mo  Mo5  1  5.78991733  5.28704814  5.01005485  1
