# generated using pymatgen
data_Mo
_symmetry_space_group_name_H-M   'P 1'
_cell_length_a   5.06326642
_cell_length_b   5.22557660
_cell_length_c   5.12955026
_cell_angle_alpha   64.72742759
_cell_angle_beta   62.19686882
_cell_angle_gamma   60.87537501
_symmetry_Int_Tables_number   1
_chemical_formula_structural   Mo
_chemical_formula_sum   Mo6
_cell_volume   101.30270637
_cell_formula_units_Z   6
loop_
 _symmetry_equiv_pos_site_id
 _symmetry_equiv_pos_as_xyz
  1  'x, y, z'
loop_
 _atom_site_type_symbol
 _atom_site_label
 _atom_site_symmetry_multiplicity
 _atom_site_fract_x
 _atom_site_fract_y
 _atom_site_fract_z
 _atom_site_occupancy
  Mo  Mo0  1  0.80799036  0.99685436  0.85464418  1
  Mo  Mo1  1  2.51347912  1.16019506  2.82727963  1
  Mo  Mo2  1  2.52111903  2.89629594  0.66653966  1
  Mo  Mo3  1  0.62133438  2.92148953  2.48869000  1
  Mo  Mo4  1  3.23196145  3.98741745  3.41857674  1
  Mo  Mo5  1  4.84794218  5.98112616  5.12786511  1
