# generated using pymatgen
data_Mo
_symmetry_space_group_name_H-M   'P 1'
_cell_length_a   9.46603805
_cell_length_b   9.46603785
_cell_length_c   9.46603779
_cell_angle_alpha   90.00000282
_cell_angle_beta   89.99999931
_cell_angle_gamma   89.99999840
_symmetry_Int_Tables_number   1
_chemical_formula_structural   Mo
_chemical_formula_sum   Mo53
_cell_volume   848.21259331
_cell_formula_units_Z   53
loop_
 _symmetry_equiv_pos_site_id
 _symmetry_equiv_pos_as_xyz
  1  'x, y, z'
loop_
 _atom_site_type_symbol
 _atom_site_label
 _atom_site_symmetry_multiplicity
 _atom_site_fract_x
 _atom_site_fract_y
 _atom_site_fract_z
 _atom_site_occupancy
  Mo  Mo0  1  1.61871984  1.57206769  1.59371800  1
  Mo  Mo1  1  -0.02117864  -0.06457752  3.12550379  1
  Mo  Mo2  1  1.53362694  1.58222641  4.74430010  1
  Mo  Mo3  1  0.02291590  0.01170758  6.27097289  1
  Mo  Mo4  1  1.53113274  1.58450719  7.90512471  1
  Mo  Mo5  1  -0.02129395  3.10852899  0.06333108  1
  Mo  Mo6  1  1.57224441  4.74798646  1.52183462  1
  Mo  Mo7  1  -0.01812595  3.10879048  3.23019139  1
  Mo  Mo8  1  1.53250829  4.69093073  4.71924856  1
  Mo  Mo9  1  -0.01922329  3.18514039  6.33204133  1
  Mo  Mo10  1  1.56600401  4.72134328  7.90079313  1
  Mo  Mo11  1  0.01667487  6.34098530  0.00871060  1
  Mo  Mo12  1  1.54197878  7.92413937  1.54108378  1
  Mo  Mo13  1  0.06375802  6.22667345  3.18071125  1
  Mo  Mo14  1  1.52002198  7.90994237  4.73338089  1
  Mo  Mo15  1  0.01854033  6.35590441  6.30833699  1
  Mo  Mo16  1  1.59389045  7.88943012  7.88965228  1
  Mo  Mo17  1  3.17248606  0.08017952  0.02171170  1
  Mo  Mo18  1  4.72939668  1.56822159  1.54466912  1
  Mo  Mo19  1  3.12703652  -0.01352840  3.17861607  1
  Mo  Mo20  1  4.74396761  1.58192247  4.70561025  1
  Mo  Mo21  1  3.11002726  0.03944410  6.33453861  1
  Mo  Mo22  1  4.77019419  1.55962715  7.89132710  1
  Mo  Mo23  1  3.15384844  3.17713961  0.02416947  1
  Mo  Mo24  1  4.75518876  4.71660469  1.53935926  1
  Mo  Mo25  1  3.12099103  3.21431893  3.19418741  1
  Mo  Mo26  1  4.74796465  4.81004283  4.69143203  1
  Mo  Mo27  1  3.13031257  3.21025494  6.29552084  1
  Mo  Mo28  1  4.77626100  4.76238687  7.85368844  1
  Mo  Mo29  1  3.23811785  6.35760646  0.02844841  1
  Mo  Mo30  1  4.72792617  7.96210477  1.54590742  1
  Mo  Mo31  1  3.17885312  6.29062659  3.15948210  1
  Mo  Mo32  1  4.74123976  7.84487964  4.74983561  1
  Mo  Mo33  1  3.17041526  6.36281445  6.32335165  1
  Mo  Mo34  1  4.76925932  7.87205376  7.92118132  1
  Mo  Mo35  1  6.33067452  -0.02547341  -0.01141826  1
  Mo  Mo36  1  7.82985483  1.56597852  1.57986723  1
  Mo  Mo37  1  6.27019246  -0.07058618  3.14830059  1
  Mo  Mo38  1  7.88931042  1.56667359  4.78302524  1
  Mo  Mo39  1  6.31850919  -0.02709235  6.26846144  1
  Mo  Mo40  1  7.95218108  1.50457154  7.93677907  1
  Mo  Mo41  1  6.27196599  3.14715838  -0.02710814  1
  Mo  Mo42  1  7.94053736  4.68752458  1.58269733  1
  Mo  Mo43  1  6.31063500  3.16522449  3.18104570  1
  Mo  Mo44  1  7.89124636  4.72447150  4.70502259  1
  Mo  Mo45  1  6.23734002  3.21557108  6.26599324  1
  Mo  Mo46  1  7.91786408  4.63947030  7.94452694  1
  Mo  Mo47  1  6.33791156  6.32368530  -0.02643211  1
  Mo  Mo48  1  7.90594421  7.88954002  1.58980787  1
  Mo  Mo49  1  6.25177755  6.31790581  3.14547705  1
  Mo  Mo50  1  7.85524468  7.87572250  4.74274759  1
  Mo  Mo51  1  6.35050944  6.33043632  6.21672444  1
  Mo  Mo52  1  7.90848456  7.86264472  7.88836020  1
