# generated using pymatgen
data_Mo
_symmetry_space_group_name_H-M   'P 1'
_cell_length_a   5.34513670
_cell_length_b   5.39048502
_cell_length_c   5.26057395
_cell_angle_alpha   60.74693547
_cell_angle_beta   61.46900899
_cell_angle_gamma   67.46696007
_symmetry_Int_Tables_number   1
_chemical_formula_structural   Mo
_chemical_formula_sum   Mo6
_cell_volume   113.94198520
_cell_formula_units_Z   6
loop_
 _symmetry_equiv_pos_site_id
 _symmetry_equiv_pos_as_xyz
  1  'x, y, z'
loop_
 _atom_site_type_symbol
 _atom_site_label
 _atom_site_symmetry_multiplicity
 _atom_site_fract_x
 _atom_site_fract_y
 _atom_site_fract_z
 _atom_site_occupancy
  Mo  Mo0  1  0.95404965  0.88907425  0.91101884  1
  Mo  Mo1  1  2.98632271  0.69782566  2.67102522  1
  Mo  Mo2  1  2.82650829  2.73630460  0.91796623  1
  Mo  Mo3  1  0.86551660  2.78938949  2.78814043  1
  Mo  Mo4  1  3.81619863  3.55629700  3.64407535  1
  Mo  Mo5  1  5.72429794  5.33444551  5.46611304  1
