# generated using pymatgen
data_Mo
_symmetry_space_group_name_H-M   'P 1'
_cell_length_a   4.81158673
_cell_length_b   5.27016312
_cell_length_c   5.11071868
_cell_angle_alpha   54.57050878
_cell_angle_beta   64.23839814
_cell_angle_gamma   64.74170633
_symmetry_Int_Tables_number   1
_chemical_formula_structural   Mo
_chemical_formula_sum   Mo6
_cell_volume   92.36814519
_cell_formula_units_Z   6
loop_
 _symmetry_equiv_pos_site_id
 _symmetry_equiv_pos_as_xyz
  1  'x, y, z'
loop_
 _atom_site_type_symbol
 _atom_site_label
 _atom_site_symmetry_multiplicity
 _atom_site_fract_x
 _atom_site_fract_y
 _atom_site_fract_z
 _atom_site_occupancy
  Mo  Mo0  1  0.92822289  0.81606858  0.91450850  1
  Mo  Mo1  1  2.86268393  0.76317445  2.70300439  1
  Mo  Mo2  1  2.86741311  2.47480571  1.04864940  1
  Mo  Mo3  1  0.76746320  2.47449992  2.64990572  1
  Mo  Mo4  1  3.71289156  3.26427434  3.65803401  1
  Mo  Mo5  1  5.56933735  4.89641150  5.48705101  1
