# generated using pymatgen
data_Mo
_symmetry_space_group_name_H-M   'P 1'
_cell_length_a   5.34769930
_cell_length_b   5.48514374
_cell_length_c   5.41330595
_cell_angle_alpha   60.08902984
_cell_angle_beta   59.39811830
_cell_angle_gamma   56.60830240
_symmetry_Int_Tables_number   1
_chemical_formula_structural   Mo
_chemical_formula_sum   Mo6
_cell_volume   108.71047987
_cell_formula_units_Z   6
loop_
 _symmetry_equiv_pos_site_id
 _symmetry_equiv_pos_as_xyz
  1  'x, y, z'
loop_
 _atom_site_type_symbol
 _atom_site_label
 _atom_site_symmetry_multiplicity
 _atom_site_fract_x
 _atom_site_fract_y
 _atom_site_fract_z
 _atom_site_occupancy
  Mo  Mo0  1  0.95432442  0.93917852  1.00486218  1
  Mo  Mo1  1  2.85780242  0.95437440  2.97925856  1
  Mo  Mo2  1  2.82527575  2.89426798  1.06086785  1
  Mo  Mo3  1  0.99719279  2.72560726  2.99390884  1
  Mo  Mo4  1  3.81729768  3.75671408  4.01944872  1
  Mo  Mo5  1  5.72594653  5.63507112  6.02917307  1
