# generated using pymatgen
data_Mo
_symmetry_space_group_name_H-M   'P 1'
_cell_length_a   5.04196432
_cell_length_b   5.38037342
_cell_length_c   5.21818287
_cell_angle_alpha   52.28461430
_cell_angle_beta   54.03919350
_cell_angle_gamma   55.49020113
_symmetry_Int_Tables_number   1
_chemical_formula_structural   Mo
_chemical_formula_sum   Mo6
_cell_volume   85.75631573
_cell_formula_units_Z   6
loop_
 _symmetry_equiv_pos_site_id
 _symmetry_equiv_pos_as_xyz
  1  'x, y, z'
loop_
 _atom_site_type_symbol
 _atom_site_label
 _atom_site_symmetry_multiplicity
 _atom_site_fract_x
 _atom_site_fract_y
 _atom_site_fract_z
 _atom_site_occupancy
  Mo  Mo0  1  0.99772287  0.94529238  0.94115732  1
  Mo  Mo1  1  2.89590686  1.11731322  2.83968593  1
  Mo  Mo2  1  2.92730788  2.69279467  1.11521340  1
  Mo  Mo3  1  1.16084533  2.80693877  2.63320190  1
  Mo  Mo4  1  3.99089147  3.78116951  3.76462927  1
  Mo  Mo5  1  5.98633720  5.67175427  5.64694392  1
