# generated using pymatgen
data_Mo
_symmetry_space_group_name_H-M   'P 1'
_cell_length_a   5.36466462
_cell_length_b   5.00950448
_cell_length_c   5.38321819
_cell_angle_alpha   56.26250636
_cell_angle_beta   55.89972965
_cell_angle_gamma   57.82866629
_symmetry_Int_Tables_number   1
_chemical_formula_structural   Mo
_chemical_formula_sum   Mo6
_cell_volume   94.34694487
_cell_formula_units_Z   6
loop_
 _symmetry_equiv_pos_site_id
 _symmetry_equiv_pos_as_xyz
  1  'x, y, z'
loop_
 _atom_site_type_symbol
 _atom_site_label
 _atom_site_symmetry_multiplicity
 _atom_site_fract_x
 _atom_site_fract_y
 _atom_site_fract_z
 _atom_site_occupancy
  Mo  Mo0  1  1.00012258  0.99790899  0.84834856  1
  Mo  Mo1  1  2.87100891  1.11665434  2.50951312  1
  Mo  Mo2  1  2.92687837  2.87669698  0.79807603  1
  Mo  Mo3  1  1.20297079  2.99201157  2.63085077  1
  Mo  Mo4  1  4.00049032  3.99163594  3.39339424  1
  Mo  Mo5  1  6.00073549  5.98745390  5.09009136  1
