# generated using pymatgen
data_Mo
_symmetry_space_group_name_H-M   'P 1'
_cell_length_a   5.61197149
_cell_length_b   5.17651542
_cell_length_c   5.39147870
_cell_angle_alpha   57.39865767
_cell_angle_beta   55.83806677
_cell_angle_gamma   60.41505433
_symmetry_Int_Tables_number   1
_chemical_formula_structural   Mo
_chemical_formula_sum   Mo6
_cell_volume   104.99440680
_cell_formula_units_Z   6
loop_
 _symmetry_equiv_pos_site_id
 _symmetry_equiv_pos_as_xyz
  1  'x, y, z'
loop_
 _atom_site_type_symbol
 _atom_site_label
 _atom_site_symmetry_multiplicity
 _atom_site_fract_x
 _atom_site_fract_y
 _atom_site_fract_z
 _atom_site_occupancy
  Mo  Mo0  1  0.89534349  1.01098599  0.99514159  1
  Mo  Mo1  1  2.71869453  1.06155318  2.83141823  1
  Mo  Mo2  1  2.71245055  2.99332437  1.18346867  1
  Mo  Mo3  1  0.83625934  3.02202435  2.95110421  1
  Mo  Mo4  1  3.58137395  4.04394394  3.98056635  1
  Mo  Mo5  1  5.37206093  6.06591592  5.97084953  1
