# generated using pymatgen
data_Mo
_symmetry_space_group_name_H-M   'P 1'
_cell_length_a   5.23746473
_cell_length_b   5.26445175
_cell_length_c   5.51750314
_cell_angle_alpha   60.50089853
_cell_angle_beta   62.61837164
_cell_angle_gamma   54.57669753
_symmetry_Int_Tables_number   1
_chemical_formula_structural   Mo
_chemical_formula_sum   Mo6
_cell_volume   104.58205329
_cell_formula_units_Z   6
loop_
 _symmetry_equiv_pos_site_id
 _symmetry_equiv_pos_as_xyz
  1  'x, y, z'
loop_
 _atom_site_type_symbol
 _atom_site_label
 _atom_site_symmetry_multiplicity
 _atom_site_fract_x
 _atom_site_fract_y
 _atom_site_fract_z
 _atom_site_occupancy
  Mo  Mo0  1  1.01910495  0.93804261  0.88347418  1
  Mo  Mo1  1  3.01821705  1.01959729  2.59388719  1
  Mo  Mo2  1  2.89282915  2.95339284  0.68794599  1
  Mo  Mo3  1  1.22268841  2.59330813  2.90248608  1
  Mo  Mo4  1  4.07641978  3.75217043  3.53389671  1
  Mo  Mo5  1  6.11462966  5.62825565  5.30084508  1
