# generated using pymatgen
data_Mo
_symmetry_space_group_name_H-M   'P 1'
_cell_length_a   5.22191995
_cell_length_b   5.11509840
_cell_length_c   5.41549484
_cell_angle_alpha   66.99281812
_cell_angle_beta   56.12410766
_cell_angle_gamma   56.24569943
_symmetry_Int_Tables_number   1
_chemical_formula_structural   Mo
_chemical_formula_sum   Mo6
_cell_volume   99.15921328
_cell_formula_units_Z   6
loop_
 _symmetry_equiv_pos_site_id
 _symmetry_equiv_pos_as_xyz
  1  'x, y, z'
loop_
 _atom_site_type_symbol
 _atom_site_label
 _atom_site_symmetry_multiplicity
 _atom_site_fract_x
 _atom_site_fract_y
 _atom_site_fract_z
 _atom_site_occupancy
  Mo  Mo0  1  0.89933308  0.91745803  0.96814911  1
  Mo  Mo1  1  2.55986152  0.77367281  2.90800194  1
  Mo  Mo2  1  2.67937994  2.95775439  0.99095248  1
  Mo  Mo3  1  1.05609005  2.69077905  2.87808939  1
  Mo  Mo4  1  3.59733230  3.66983214  3.87259646  1
  Mo  Mo5  1  5.39599844  5.50474822  5.80889469  1
