# generated using pymatgen
data_Mo
_symmetry_space_group_name_H-M   'P 1'
_cell_length_a   5.14005757
_cell_length_b   5.47956494
_cell_length_c   5.46115495
_cell_angle_alpha   54.70461111
_cell_angle_beta   64.83548317
_cell_angle_gamma   59.11887099
_symmetry_Int_Tables_number   1
_chemical_formula_structural   Mo
_chemical_formula_sum   Mo6
_cell_volume   105.91072608
_cell_formula_units_Z   6
loop_
 _symmetry_equiv_pos_site_id
 _symmetry_equiv_pos_as_xyz
  1  'x, y, z'
loop_
 _atom_site_type_symbol
 _atom_site_label
 _atom_site_symmetry_multiplicity
 _atom_site_fract_x
 _atom_site_fract_y
 _atom_site_fract_z
 _atom_site_occupancy
  Mo  Mo0  1  0.93745792  0.92537386  0.98889031  1
  Mo  Mo1  1  2.85452521  1.06932160  2.94095077  1
  Mo  Mo2  1  2.95219078  2.76572643  1.08892679  1
  Mo  Mo3  1  0.75548947  2.64256897  2.89235463  1
  Mo  Mo4  1  3.74983169  3.70149543  3.95556125  1
  Mo  Mo5  1  5.62474754  5.55224314  5.93334188  1
