# generated using pymatgen
data_Mo
_symmetry_space_group_name_H-M   'P 1'
_cell_length_a   5.00174259
_cell_length_b   5.42969172
_cell_length_c   5.27143558
_cell_angle_alpha   57.70427125
_cell_angle_beta   55.46966276
_cell_angle_gamma   58.56925719
_symmetry_Int_Tables_number   1
_chemical_formula_structural   Mo
_chemical_formula_sum   Mo6
_cell_volume   94.65514740
_cell_formula_units_Z   6
loop_
 _symmetry_equiv_pos_site_id
 _symmetry_equiv_pos_as_xyz
  1  'x, y, z'
loop_
 _atom_site_type_symbol
 _atom_site_label
 _atom_site_symmetry_multiplicity
 _atom_site_fract_x
 _atom_site_fract_y
 _atom_site_fract_z
 _atom_site_occupancy
  Mo  Mo0  1  0.96548936  0.92892628  0.93710443  1
  Mo  Mo1  1  2.87622071  0.96305149  2.86540141  1
  Mo  Mo2  1  2.82667365  2.79222499  1.04255230  1
  Mo  Mo3  1  1.05553116  2.74720749  2.65177733  1
  Mo  Mo4  1  3.86195744  3.71570513  3.74841774  1
  Mo  Mo5  1  5.79293616  5.57355768  5.62262661  1
