# generated using pymatgen
data_Mo
_symmetry_space_group_name_H-M   'P 1'
_cell_length_a   5.57556873
_cell_length_b   5.38155058
_cell_length_c   4.99647644
_cell_angle_alpha   57.47758939
_cell_angle_beta   55.34569865
_cell_angle_gamma   55.23799125
_symmetry_Int_Tables_number   1
_chemical_formula_structural   Mo
_chemical_formula_sum   Mo6
_cell_volume   96.12924950
_cell_formula_units_Z   6
loop_
 _symmetry_equiv_pos_site_id
 _symmetry_equiv_pos_as_xyz
  1  'x, y, z'
loop_
 _atom_site_type_symbol
 _atom_site_label
 _atom_site_symmetry_multiplicity
 _atom_site_fract_x
 _atom_site_fract_y
 _atom_site_fract_z
 _atom_site_occupancy
  Mo  Mo0  1  0.94285011  0.93881469  1.01950704  1
  Mo  Mo1  1  2.77275622  0.98879914  2.99161677  1
  Mo  Mo2  1  2.72788510  2.68162769  1.15159474  1
  Mo  Mo3  1  1.09930942  2.90127603  2.99333775  1
  Mo  Mo4  1  3.77140042  3.75525878  4.07802815  1
  Mo  Mo5  1  5.65710063  5.63288816  6.11704222  1
