# generated using pymatgen
data_Mo
_symmetry_space_group_name_H-M   'P 1'
_cell_length_a   5.18544575
_cell_length_b   5.27237144
_cell_length_c   5.18527160
_cell_angle_alpha   59.64307464
_cell_angle_beta   55.79749112
_cell_angle_gamma   58.82838369
_symmetry_Int_Tables_number   1
_chemical_formula_structural   Mo
_chemical_formula_sum   Mo6
_cell_volume   95.60171047
_cell_formula_units_Z   6
loop_
 _symmetry_equiv_pos_site_id
 _symmetry_equiv_pos_as_xyz
  1  'x, y, z'
loop_
 _atom_site_type_symbol
 _atom_site_label
 _atom_site_symmetry_multiplicity
 _atom_site_fract_x
 _atom_site_fract_y
 _atom_site_fract_z
 _atom_site_occupancy
  Mo  Mo0  1  0.98697940  0.93527131  0.87865694  1
  Mo  Mo1  1  2.88631722  0.94004088  2.70676204  1
  Mo  Mo2  1  2.84023450  2.74787906  0.83792508  1
  Mo  Mo3  1  1.18230414  2.85897920  2.60591143  1
  Mo  Mo4  1  3.94791763  3.74108522  3.51462775  1
  Mo  Mo5  1  5.92187645  5.61162783  5.27194162  1
