# generated using pymatgen
data_Mo
_symmetry_space_group_name_H-M   'P 1'
_cell_length_a   4.92909047
_cell_length_b   5.29549683
_cell_length_c   5.44924661
_cell_angle_alpha   62.50939737
_cell_angle_beta   60.93732654
_cell_angle_gamma   56.23653133
_symmetry_Int_Tables_number   1
_chemical_formula_structural   Mo
_chemical_formula_sum   Mo6
_cell_volume   99.69914991
_cell_formula_units_Z   6
loop_
 _symmetry_equiv_pos_site_id
 _symmetry_equiv_pos_as_xyz
  1  'x, y, z'
loop_
 _atom_site_type_symbol
 _atom_site_label
 _atom_site_symmetry_multiplicity
 _atom_site_fract_x
 _atom_site_fract_y
 _atom_site_fract_z
 _atom_site_occupancy
  Mo  Mo0  1  0.87867657  0.99112871  0.89703665  1
  Mo  Mo1  1  2.54672299  1.18243410  2.94437519  1
  Mo  Mo2  1  2.78560670  2.93416207  0.78835812  1
  Mo  Mo3  1  0.81840633  2.82130481  2.54652329  1
  Mo  Mo4  1  3.51470629  3.96451484  3.58814663  1
  Mo  Mo5  1  5.27205944  5.94677227  5.38221995  1
