# generated using pymatgen
data_Mo
_symmetry_space_group_name_H-M   'P 1'
_cell_length_a   4.83796539
_cell_length_b   5.54136108
_cell_length_c   4.86444622
_cell_angle_alpha   58.90946423
_cell_angle_beta   60.57584425
_cell_angle_gamma   62.03159678
_symmetry_Int_Tables_number   1
_chemical_formula_structural   Mo
_chemical_formula_sum   Mo6
_cell_volume   93.13151252
_cell_formula_units_Z   6
loop_
 _symmetry_equiv_pos_site_id
 _symmetry_equiv_pos_as_xyz
  1  'x, y, z'
loop_
 _atom_site_type_symbol
 _atom_site_label
 _atom_site_symmetry_multiplicity
 _atom_site_fract_x
 _atom_site_fract_y
 _atom_site_fract_z
 _atom_site_occupancy
  Mo  Mo0  1  0.86075603  0.91535985  0.90865349  1
  Mo  Mo1  1  2.81784286  1.03744028  2.86609523  1
  Mo  Mo2  1  2.51015917  2.70278324  0.92586244  1
  Mo  Mo3  1  0.69729023  2.66729538  2.56861678  1
  Mo  Mo4  1  3.44302415  3.66143937  3.63461397  1
  Mo  Mo5  1  5.16453623  5.49215905  5.45192095  1
