# generated using pymatgen
data_Mo
_symmetry_space_group_name_H-M   'P 1'
_cell_length_a   5.40613912
_cell_length_b   5.13505743
_cell_length_c   5.09460341
_cell_angle_alpha   64.09537218
_cell_angle_beta   52.40478516
_cell_angle_gamma   59.57539169
_symmetry_Int_Tables_number   1
_chemical_formula_structural   Mo
_chemical_formula_sum   Mo6
_cell_volume   94.92088872
_cell_formula_units_Z   6
loop_
 _symmetry_equiv_pos_site_id
 _symmetry_equiv_pos_as_xyz
  1  'x, y, z'
loop_
 _atom_site_type_symbol
 _atom_site_label
 _atom_site_symmetry_multiplicity
 _atom_site_fract_x
 _atom_site_fract_y
 _atom_site_fract_z
 _atom_site_occupancy
  Mo  Mo0  1  0.85833653  0.93335995  0.99392499  1
  Mo  Mo1  1  2.53007564  0.79823322  2.93794989  1
  Mo  Mo2  1  2.52978357  2.84845884  1.15947566  1
  Mo  Mo3  1  0.94849650  2.88682760  2.86004942  1
  Mo  Mo4  1  3.43334613  3.73343981  3.97569998  1
  Mo  Mo5  1  5.15001918  5.60015971  5.96354997  1
