# generated using pymatgen
data_Mo
_symmetry_space_group_name_H-M   'P 1'
_cell_length_a   5.71365731
_cell_length_b   5.39379323
_cell_length_c   5.34720627
_cell_angle_alpha   56.65072414
_cell_angle_beta   58.95383253
_cell_angle_gamma   61.23330121
_symmetry_Int_Tables_number   1
_chemical_formula_structural   Mo
_chemical_formula_sum   Mo6
_cell_volume   113.34683429
_cell_formula_units_Z   6
loop_
 _symmetry_equiv_pos_site_id
 _symmetry_equiv_pos_as_xyz
  1  'x, y, z'
loop_
 _atom_site_type_symbol
 _atom_site_label
 _atom_site_symmetry_multiplicity
 _atom_site_fract_x
 _atom_site_fract_y
 _atom_site_fract_z
 _atom_site_occupancy
  Mo  Mo0  1  0.92202639  0.97718543  1.02847261  1
  Mo  Mo1  1  2.80833703  0.99225293  2.95586893  1
  Mo  Mo2  1  2.82827414  2.84353462  1.20486404  1
  Mo  Mo3  1  0.81757363  3.00451043  3.03857532  1
  Mo  Mo4  1  3.68810560  3.90874170  4.11389045  1
  Mo  Mo5  1  5.53215839  5.86311256  6.17083568  1
