# generated using pymatgen
data_Mo
_symmetry_space_group_name_H-M   'P 1'
_cell_length_a   4.77152408
_cell_length_b   5.04472391
_cell_length_c   5.36276993
_cell_angle_alpha   59.07318429
_cell_angle_beta   60.79793729
_cell_angle_gamma   66.19408457
_symmetry_Int_Tables_number   1
_chemical_formula_structural   Mo
_chemical_formula_sum   Mo6
_cell_volume   94.62409708
_cell_formula_units_Z   6
loop_
 _symmetry_equiv_pos_site_id
 _symmetry_equiv_pos_as_xyz
  1  'x, y, z'
loop_
 _atom_site_type_symbol
 _atom_site_label
 _atom_site_symmetry_multiplicity
 _atom_site_fract_x
 _atom_site_fract_y
 _atom_site_fract_z
 _atom_site_occupancy
  Mo  Mo0  1  0.91032275  0.85453865  0.87868766  1
  Mo  Mo1  1  2.74656175  0.71492287  2.60235920  1
  Mo  Mo2  1  2.83557756  2.71723610  0.99521027  1
  Mo  Mo3  1  0.79011995  2.54961163  2.55324414  1
  Mo  Mo4  1  3.64129100  3.41815462  3.51475063  1
  Mo  Mo5  1  5.46193651  5.12723193  5.27212595  1
