# generated using pymatgen
data_Mo
_symmetry_space_group_name_H-M   'P 1'
_cell_length_a   5.50858268
_cell_length_b   5.54344607
_cell_length_c   4.99096931
_cell_angle_alpha   56.44001980
_cell_angle_beta   53.55016329
_cell_angle_gamma   53.60225119
_symmetry_Int_Tables_number   1
_chemical_formula_structural   Mo
_chemical_formula_sum   Mo6
_cell_volume   93.83781926
_cell_formula_units_Z   6
loop_
 _symmetry_equiv_pos_site_id
 _symmetry_equiv_pos_as_xyz
  1  'x, y, z'
loop_
 _atom_site_type_symbol
 _atom_site_label
 _atom_site_symmetry_multiplicity
 _atom_site_fract_x
 _atom_site_fract_y
 _atom_site_fract_z
 _atom_site_occupancy
  Mo  Mo0  1  0.95356356  1.00401193  0.99036845  1
  Mo  Mo1  1  2.85220513  1.21256298  2.99887914  1
  Mo  Mo2  1  2.68461509  2.79966095  1.07129336  1
  Mo  Mo3  1  1.13812470  3.01585959  2.86240664  1
  Mo  Mo4  1  3.81425425  4.01604773  3.96147380  1
  Mo  Mo5  1  5.72138137  6.02407159  5.94221069  1
