# generated using pymatgen
data_Mo
_symmetry_space_group_name_H-M   'P 1'
_cell_length_a   4.92596840
_cell_length_b   5.06104910
_cell_length_c   5.34733273
_cell_angle_alpha   60.46294340
_cell_angle_beta   59.59381839
_cell_angle_gamma   60.54023839
_symmetry_Int_Tables_number   1
_chemical_formula_structural   Mo
_chemical_formula_sum   Mo6
_cell_volume   94.67487976
_cell_formula_units_Z   6
loop_
 _symmetry_equiv_pos_site_id
 _symmetry_equiv_pos_as_xyz
  1  'x, y, z'
loop_
 _atom_site_type_symbol
 _atom_site_label
 _atom_site_symmetry_multiplicity
 _atom_site_fract_x
 _atom_site_fract_y
 _atom_site_fract_z
 _atom_site_occupancy
  Mo  Mo0  1  0.93231220  0.94028226  0.83037234  1
  Mo  Mo1  1  2.75229550  0.98799862  2.58790994  1
  Mo  Mo2  1  2.81240531  2.83860070  0.72973017  1
  Mo  Mo3  1  0.96148456  2.75537652  2.49496627  1
  Mo  Mo4  1  3.72924879  3.76112905  3.32148936  1
  Mo  Mo5  1  5.59387318  5.64169357  4.98223404  1
