# generated using pymatgen
data_Mo
_symmetry_space_group_name_H-M   'P 1'
_cell_length_a   5.02281002
_cell_length_b   5.55481689
_cell_length_c   5.19955855
_cell_angle_alpha   55.15251258
_cell_angle_beta   62.08361849
_cell_angle_gamma   59.56779507
_symmetry_Int_Tables_number   1
_chemical_formula_structural   Mo
_chemical_formula_sum   Mo6
_cell_volume   99.32464804
_cell_formula_units_Z   6
loop_
 _symmetry_equiv_pos_site_id
 _symmetry_equiv_pos_as_xyz
  1  'x, y, z'
loop_
 _atom_site_type_symbol
 _atom_site_label
 _atom_site_symmetry_multiplicity
 _atom_site_fract_x
 _atom_site_fract_y
 _atom_site_fract_z
 _atom_site_occupancy
  Mo  Mo0  1  0.99511880  0.83736945  0.97301860  1
  Mo  Mo1  1  2.98262736  0.81095877  2.91289228  1
  Mo  Mo2  1  2.98558548  2.50612446  1.08325180  1
  Mo  Mo3  1  0.99761878  2.54450287  2.81498611  1
  Mo  Mo4  1  3.98047522  3.34947779  3.89207439  1
  Mo  Mo5  1  5.97071282  5.02421667  5.83811158  1
