# generated using pymatgen
data_Mo
_symmetry_space_group_name_H-M   'P 1'
_cell_length_a   5.44269240
_cell_length_b   5.33522392
_cell_length_c   4.68029297
_cell_angle_alpha   58.79587941
_cell_angle_beta   52.83306092
_cell_angle_gamma   62.20899627
_symmetry_Int_Tables_number   1
_chemical_formula_structural   Mo
_chemical_formula_sum   Mo6
_cell_volume   90.26077775
_cell_formula_units_Z   6
loop_
 _symmetry_equiv_pos_site_id
 _symmetry_equiv_pos_as_xyz
  1  'x, y, z'
loop_
 _atom_site_type_symbol
 _atom_site_label
 _atom_site_symmetry_multiplicity
 _atom_site_fract_x
 _atom_site_fract_y
 _atom_site_fract_z
 _atom_site_occupancy
  Mo  Mo0  1  0.95337581  0.89069011  0.92515960  1
  Mo  Mo1  1  2.91161122  0.77226003  2.73276631  1
  Mo  Mo2  1  2.61446567  2.53615501  1.02268547  1
  Mo  Mo3  1  1.14755379  2.92641573  2.72066546  1
  Mo  Mo4  1  3.81350325  3.56276044  3.70063842  1
  Mo  Mo5  1  5.72025486  5.34414067  5.55095763  1
