# generated using pymatgen
data_Mo
_symmetry_space_group_name_H-M   'P 1'
_cell_length_a   5.51961726
_cell_length_b   5.33138095
_cell_length_c   5.09558103
_cell_angle_alpha   56.79366021
_cell_angle_beta   53.82820051
_cell_angle_gamma   54.44304892
_symmetry_Int_Tables_number   1
_chemical_formula_structural   Mo
_chemical_formula_sum   Mo6
_cell_volume   93.58239611
_cell_formula_units_Z   6
loop_
 _symmetry_equiv_pos_site_id
 _symmetry_equiv_pos_as_xyz
  1  'x, y, z'
loop_
 _atom_site_type_symbol
 _atom_site_label
 _atom_site_symmetry_multiplicity
 _atom_site_fract_x
 _atom_site_fract_y
 _atom_site_fract_z
 _atom_site_occupancy
  Mo  Mo0  1  0.88651184  0.99117343  1.03728934  1
  Mo  Mo1  1  2.63413822  1.13653176  3.04491946  1
  Mo  Mo2  1  2.62345757  2.84362982  1.24383560  1
  Mo  Mo3  1  0.94798709  2.95805247  2.97227030  1
  Mo  Mo4  1  3.54604735  3.96469373  4.14915734  1
  Mo  Mo5  1  5.31907103  5.94704061  6.22373603  1
