# generated using pymatgen
data_Mo
_symmetry_space_group_name_H-M   'P 1'
_cell_length_a   5.10066823
_cell_length_b   5.43026843
_cell_length_c   5.15580660
_cell_angle_alpha   60.35589774
_cell_angle_beta   64.35161650
_cell_angle_gamma   62.44517766
_symmetry_Int_Tables_number   1
_chemical_formula_structural   Mo
_chemical_formula_sum   Mo6
_cell_volume   106.10776186
_cell_formula_units_Z   6
loop_
 _symmetry_equiv_pos_site_id
 _symmetry_equiv_pos_as_xyz
  1  'x, y, z'
loop_
 _atom_site_type_symbol
 _atom_site_label
 _atom_site_symmetry_multiplicity
 _atom_site_fract_x
 _atom_site_fract_y
 _atom_site_fract_z
 _atom_site_occupancy
  Mo  Mo0  1  0.92406484  0.82817407  0.96525238  1
  Mo  Mo1  1  2.78098848  0.69048837  2.94131692  1
  Mo  Mo2  1  2.86941390  2.51916872  1.00696070  1
  Mo  Mo3  1  0.81805151  2.58756142  2.80848905  1
  Mo  Mo4  1  3.69625936  3.31269629  3.86100953  1
  Mo  Mo5  1  5.54438904  4.96904444  5.79151430  1
