# generated using pymatgen
data_Mo
_symmetry_space_group_name_H-M   'P 1'
_cell_length_a   4.99361946
_cell_length_b   5.52848620
_cell_length_c   5.30475169
_cell_angle_alpha   56.86640695
_cell_angle_beta   60.32355408
_cell_angle_gamma   54.37540447
_symmetry_Int_Tables_number   1
_chemical_formula_structural   Mo
_chemical_formula_sum   Mo6
_cell_volume   96.26653250
_cell_formula_units_Z   6
loop_
 _symmetry_equiv_pos_site_id
 _symmetry_equiv_pos_as_xyz
  1  'x, y, z'
loop_
 _atom_site_type_symbol
 _atom_site_label
 _atom_site_symmetry_multiplicity
 _atom_site_fract_x
 _atom_site_fract_y
 _atom_site_fract_z
 _atom_site_occupancy
  Mo  Mo0  1  0.94019843  0.94582596  0.97037585  1
  Mo  Mo1  1  2.89631150  1.15005230  2.91278496  1
  Mo  Mo2  1  2.73820274  2.89518991  1.01789719  1
  Mo  Mo3  1  0.94687476  2.57553945  2.86194878  1
  Mo  Mo4  1  3.76079371  3.78330381  3.88150339  1
  Mo  Mo5  1  5.64119057  5.67495571  5.82225509  1
