# generated using pymatgen
data_Mo
_symmetry_space_group_name_H-M   'P 1'
_cell_length_a   5.43606336
_cell_length_b   5.56448357
_cell_length_c   5.13816189
_cell_angle_alpha   58.37331233
_cell_angle_beta   57.62478730
_cell_angle_gamma   62.81083953
_symmetry_Int_Tables_number   1
_chemical_formula_structural   Mo
_chemical_formula_sum   Mo6
_cell_volume   108.36482499
_cell_formula_units_Z   6
loop_
 _symmetry_equiv_pos_site_id
 _symmetry_equiv_pos_as_xyz
  1  'x, y, z'
loop_
 _atom_site_type_symbol
 _atom_site_label
 _atom_site_symmetry_multiplicity
 _atom_site_fract_x
 _atom_site_fract_y
 _atom_site_fract_z
 _atom_site_occupancy
  Mo  Mo0  1  0.98713465  0.86534449  1.00130881  1
  Mo  Mo1  1  2.88590422  0.67412539  3.02590228  1
  Mo  Mo2  1  2.95925064  2.50437444  1.15788546  1
  Mo  Mo3  1  1.06478770  2.87891160  2.82537399  1
  Mo  Mo4  1  3.94853861  3.46137796  4.00523527  1
  Mo  Mo5  1  5.92280791  5.19206693  6.00785291  1
