# generated using pymatgen
data_Mo
_symmetry_space_group_name_H-M   'P 1'
_cell_length_a   5.48820602
_cell_length_b   5.07781168
_cell_length_c   5.59806415
_cell_angle_alpha   61.72081317
_cell_angle_beta   57.67488866
_cell_angle_gamma   68.24339957
_symmetry_Int_Tables_number   1
_chemical_formula_structural   Mo
_chemical_formula_sum   Mo6
_cell_volume   114.64437327
_cell_formula_units_Z   6
loop_
 _symmetry_equiv_pos_site_id
 _symmetry_equiv_pos_as_xyz
  1  'x, y, z'
loop_
 _atom_site_type_symbol
 _atom_site_label
 _atom_site_symmetry_multiplicity
 _atom_site_fract_x
 _atom_site_fract_y
 _atom_site_fract_z
 _atom_site_occupancy
  Mo  Mo0  1  0.90536895  0.95845601  0.93908747  1
  Mo  Mo1  1  2.71405658  0.74938822  2.70854574  1
  Mo  Mo2  1  2.85044072  2.96551025  1.09077673  1
  Mo  Mo3  1  0.77308534  2.99429360  2.77428983  1
  Mo  Mo4  1  3.62147580  3.83382404  3.75634989  1
  Mo  Mo5  1  5.43221370  5.75073606  5.63452483  1
