# generated using pymatgen
data_Mo
_symmetry_space_group_name_H-M   'P 1'
_cell_length_a   4.73112261
_cell_length_b   4.67344563
_cell_length_c   5.72178329
_cell_angle_alpha   60.21900161
_cell_angle_beta   61.64284685
_cell_angle_gamma   59.64523499
_symmetry_Int_Tables_number   1
_chemical_formula_structural   Mo
_chemical_formula_sum   Mo6
_cell_volume   90.41544588
_cell_formula_units_Z   6
loop_
 _symmetry_equiv_pos_site_id
 _symmetry_equiv_pos_as_xyz
  1  'x, y, z'
loop_
 _atom_site_type_symbol
 _atom_site_label
 _atom_site_symmetry_multiplicity
 _atom_site_fract_x
 _atom_site_fract_y
 _atom_site_fract_z
 _atom_site_occupancy
  Mo  Mo0  1  0.91030180  0.94499564  0.80430928  1
  Mo  Mo1  1  2.54385521  1.01240534  2.47380999  1
  Mo  Mo2  1  2.95015205  2.94898431  0.71632443  1
  Mo  Mo3  1  0.87810529  2.65357979  2.44003048  1
  Mo  Mo4  1  3.64120717  3.77998253  3.21723709  1
  Mo  Mo5  1  5.46181076  5.66997380  4.82585564  1
