# generated using pymatgen
data_Mo
_symmetry_space_group_name_H-M   'P 1'
_cell_length_a   5.11364002
_cell_length_b   5.21659983
_cell_length_c   5.46085594
_cell_angle_alpha   62.82378035
_cell_angle_beta   66.78054264
_cell_angle_gamma   65.43400196
_symmetry_Int_Tables_number   1
_chemical_formula_structural   Mo
_chemical_formula_sum   Mo6
_cell_volume   114.03904351
_cell_formula_units_Z   6
loop_
 _symmetry_equiv_pos_site_id
 _symmetry_equiv_pos_as_xyz
  1  'x, y, z'
loop_
 _atom_site_type_symbol
 _atom_site_label
 _atom_site_symmetry_multiplicity
 _atom_site_fract_x
 _atom_site_fract_y
 _atom_site_fract_z
 _atom_site_occupancy
  Mo  Mo0  1  0.91098620  0.88871173  0.88161150  1
  Mo  Mo1  1  2.88449098  0.78575633  2.58393566  1
  Mo  Mo2  1  2.76362390  2.89109423  0.76570296  1
  Mo  Mo3  1  0.72878854  2.54413149  2.82164190  1
  Mo  Mo4  1  3.64394481  3.55484688  3.52644601  1
  Mo  Mo5  1  5.46591721  5.33227033  5.28966902  1
