# generated using pymatgen
data_Mo
_symmetry_space_group_name_H-M   'P 1'
_cell_length_a   5.28424904
_cell_length_b   5.22185562
_cell_length_c   5.32097641
_cell_angle_alpha   61.39059379
_cell_angle_beta   63.46904240
_cell_angle_gamma   53.00052659
_symmetry_Int_Tables_number   1
_chemical_formula_structural   Mo
_chemical_formula_sum   Mo6
_cell_volume   100.27793301
_cell_formula_units_Z   6
loop_
 _symmetry_equiv_pos_site_id
 _symmetry_equiv_pos_as_xyz
  1  'x, y, z'
loop_
 _atom_site_type_symbol
 _atom_site_label
 _atom_site_symmetry_multiplicity
 _atom_site_fract_x
 _atom_site_fract_y
 _atom_site_fract_z
 _atom_site_occupancy
  Mo  Mo0  1  0.94909054  0.91977495  0.94084093  1
  Mo  Mo1  1  2.66459505  1.02447447  2.90629923  1
  Mo  Mo2  1  2.92977285  2.69120757  0.80999169  1
  Mo  Mo3  1  1.04926589  2.72274260  2.86959558  1
  Mo  Mo4  1  3.79636217  3.67909980  3.76336371  1
  Mo  Mo5  1  5.69454325  5.51864969  5.64504557  1
