# generated using pymatgen
data_Mo
_symmetry_space_group_name_H-M   'P 1'
_cell_length_a   5.17128542
_cell_length_b   4.84036788
_cell_length_c   4.95487447
_cell_angle_alpha   64.61944263
_cell_angle_beta   61.21163627
_cell_angle_gamma   61.78763786
_symmetry_Int_Tables_number   1
_chemical_formula_structural   Mo
_chemical_formula_sum   Mo6
_cell_volume   92.48330761
_cell_formula_units_Z   6
loop_
 _symmetry_equiv_pos_site_id
 _symmetry_equiv_pos_as_xyz
  1  'x, y, z'
loop_
 _atom_site_type_symbol
 _atom_site_label
 _atom_site_symmetry_multiplicity
 _atom_site_fract_x
 _atom_site_fract_y
 _atom_site_fract_z
 _atom_site_occupancy
  Mo  Mo0  1  0.89369481  0.83698252  0.86310250  1
  Mo  Mo1  1  2.54051533  0.65968038  2.62770908  1
  Mo  Mo2  1  2.73478408  2.49196456  0.76760386  1
  Mo  Mo3  1  0.98056420  2.70723276  2.64640449  1
  Mo  Mo4  1  3.57477921  3.34793012  3.45240996  1
  Mo  Mo5  1  5.36216881  5.02189517  5.17861494  1
