# generated using pymatgen
data_Mo
_symmetry_space_group_name_H-M   'P 1'
_cell_length_a   4.92768349
_cell_length_b   5.32388678
_cell_length_c   4.92274379
_cell_angle_alpha   59.70876930
_cell_angle_beta   65.40308733
_cell_angle_gamma   54.75952333
_symmetry_Int_Tables_number   1
_chemical_formula_structural   Mo
_chemical_formula_sum   Mo6
_cell_volume   89.63073995
_cell_formula_units_Z   6
loop_
 _symmetry_equiv_pos_site_id
 _symmetry_equiv_pos_as_xyz
  1  'x, y, z'
loop_
 _atom_site_type_symbol
 _atom_site_label
 _atom_site_symmetry_multiplicity
 _atom_site_fract_x
 _atom_site_fract_y
 _atom_site_fract_z
 _atom_site_occupancy
  Mo  Mo0  1  0.85016366  0.87797710  0.95340388  1
  Mo  Mo1  1  2.59040311  1.04976555  2.96039118  1
  Mo  Mo2  1  2.62196565  2.58612899  0.91753675  1
  Mo  Mo3  1  0.73877683  2.50994521  2.79589927  1
  Mo  Mo4  1  3.40065463  3.51190843  3.81361554  1
  Mo  Mo5  1  5.10098193  5.26786263  5.72042331  1
