# generated using pymatgen
data_Mo
_symmetry_space_group_name_H-M   'P 1'
_cell_length_a   4.87779251
_cell_length_b   5.22908458
_cell_length_c   5.00580409
_cell_angle_alpha   57.55885863
_cell_angle_beta   59.07930156
_cell_angle_gamma   51.21284811
_symmetry_Int_Tables_number   1
_chemical_formula_structural   Mo
_chemical_formula_sum   Mo6
_cell_volume   80.86584867
_cell_formula_units_Z   6
loop_
 _symmetry_equiv_pos_site_id
 _symmetry_equiv_pos_as_xyz
  1  'x, y, z'
loop_
 _atom_site_type_symbol
 _atom_site_label
 _atom_site_symmetry_multiplicity
 _atom_site_fract_x
 _atom_site_fract_y
 _atom_site_fract_z
 _atom_site_occupancy
  Mo  Mo0  1  0.94118593  0.87215323  0.93501393  1
  Mo  Mo1  1  2.66640639  1.02100806  2.89391362  1
  Mo  Mo2  1  2.81172878  2.53505880  0.95326721  1
  Mo  Mo3  1  1.11016637  2.54900578  2.69791668  1
  Mo  Mo4  1  3.76474374  3.48861294  3.74005572  1
  Mo  Mo5  1  5.64711560  5.23291940  5.61008358  1
