# generated using pymatgen
data_Mo
_symmetry_space_group_name_H-M   'P 1'
_cell_length_a   5.07063491
_cell_length_b   5.39506578
_cell_length_c   5.29249094
_cell_angle_alpha   60.40106695
_cell_angle_beta   64.33889767
_cell_angle_gamma   62.43505880
_symmetry_Int_Tables_number   1
_chemical_formula_structural   Mo
_chemical_formula_sum   Mo6
_cell_volume   107.60118164
_cell_formula_units_Z   6
loop_
 _symmetry_equiv_pos_site_id
 _symmetry_equiv_pos_as_xyz
  1  'x, y, z'
loop_
 _atom_site_type_symbol
 _atom_site_label
 _atom_site_symmetry_multiplicity
 _atom_site_fract_x
 _atom_site_fract_y
 _atom_site_fract_z
 _atom_site_occupancy
  Mo  Mo0  1  0.90829106  0.85546405  0.96792608  1
  Mo  Mo1  1  2.77853340  0.75497464  2.90926045  1
  Mo  Mo2  1  2.82955855  2.67420448  1.02733619  1
  Mo  Mo3  1  0.74994549  2.55906921  2.83888592  1
  Mo  Mo4  1  3.63316425  3.42185618  3.87170432  1
  Mo  Mo5  1  5.44974638  5.13278428  5.80755648  1
