# generated using pymatgen
data_Mo
_symmetry_space_group_name_H-M   'P 1'
_cell_length_a   4.92343867
_cell_length_b   4.89669233
_cell_length_c   5.35783428
_cell_angle_alpha   59.73271096
_cell_angle_beta   62.51654699
_cell_angle_gamma   54.63915597
_symmetry_Int_Tables_number   1
_chemical_formula_structural   Mo
_chemical_formula_sum   Mo6
_cell_volume   88.29806652
_cell_formula_units_Z   6
loop_
 _symmetry_equiv_pos_site_id
 _symmetry_equiv_pos_as_xyz
  1  'x, y, z'
loop_
 _atom_site_type_symbol
 _atom_site_label
 _atom_site_symmetry_multiplicity
 _atom_site_fract_x
 _atom_site_fract_y
 _atom_site_fract_z
 _atom_site_occupancy
  Mo  Mo0  1  0.89410881  0.90768032  0.89905587  1
  Mo  Mo1  1  2.53342279  1.01716147  2.71428656  1
  Mo  Mo2  1  2.82392426  2.76544203  0.86542799  1
  Mo  Mo3  1  0.90141458  2.57115879  2.71367651  1
  Mo  Mo4  1  3.57643522  3.63072131  3.59622346  1
  Mo  Mo5  1  5.36465282  5.44608196  5.39433519  1
