# generated using pymatgen
data_Mo
_symmetry_space_group_name_H-M   'P 1'
_cell_length_a   5.12278361
_cell_length_b   4.96279863
_cell_length_c   5.34533598
_cell_angle_alpha   52.63223343
_cell_angle_beta   60.34126085
_cell_angle_gamma   65.26764973
_symmetry_Int_Tables_number   1
_chemical_formula_structural   Mo
_chemical_formula_sum   Mo6
_cell_volume   92.47329067
_cell_formula_units_Z   6
loop_
 _symmetry_equiv_pos_site_id
 _symmetry_equiv_pos_as_xyz
  1  'x, y, z'
loop_
 _atom_site_type_symbol
 _atom_site_label
 _atom_site_symmetry_multiplicity
 _atom_site_fract_x
 _atom_site_fract_y
 _atom_site_fract_z
 _atom_site_occupancy
  Mo  Mo0  1  0.91857628  0.93048377  0.88922268  1
  Mo  Mo1  1  2.73120088  0.97232999  2.58332526  1
  Mo  Mo2  1  2.92816712  2.68302385  1.07171141  1
  Mo  Mo3  1  0.77066598  2.85803255  2.56952213  1
  Mo  Mo4  1  3.67430512  3.72193509  3.55689075  1
  Mo  Mo5  1  5.51145768  5.58290262  5.33533612  1
