# generated using pymatgen
data_Mo
_symmetry_space_group_name_H-M   'P 1'
_cell_length_a   5.53079376
_cell_length_b   5.58952534
_cell_length_c   5.61916939
_cell_angle_alpha   58.33487002
_cell_angle_beta   57.15863134
_cell_angle_gamma   59.55678179
_symmetry_Int_Tables_number   1
_chemical_formula_structural   Mo
_chemical_formula_sum   Mo6
_cell_volume   118.08523096
_cell_formula_units_Z   6
loop_
 _symmetry_equiv_pos_site_id
 _symmetry_equiv_pos_as_xyz
  1  'x, y, z'
loop_
 _atom_site_type_symbol
 _atom_site_label
 _atom_site_symmetry_multiplicity
 _atom_site_fract_x
 _atom_site_fract_y
 _atom_site_fract_z
 _atom_site_occupancy
  Mo  Mo0  1  0.96657486  0.97488530  1.05179313  1
  Mo  Mo1  1  2.90368090  0.94531573  3.06610299  1
  Mo  Mo2  1  2.91732686  2.98694103  1.25170441  1
  Mo  Mo3  1  0.94501625  2.89194033  3.04474449  1
  Mo  Mo4  1  3.86629944  3.89954120  4.20717251  1
  Mo  Mo5  1  5.79944916  5.84931179  6.31075876  1
