# generated using pymatgen
data_Mo
_symmetry_space_group_name_H-M   'P 1'
_cell_length_a   4.96476072
_cell_length_b   5.03251924
_cell_length_c   5.41789639
_cell_angle_alpha   59.33513651
_cell_angle_beta   60.43774122
_cell_angle_gamma   61.51524288
_symmetry_Int_Tables_number   1
_chemical_formula_structural   Mo
_chemical_formula_sum   Mo6
_cell_volume   96.57948899
_cell_formula_units_Z   6
loop_
 _symmetry_equiv_pos_site_id
 _symmetry_equiv_pos_as_xyz
  1  'x, y, z'
loop_
 _atom_site_type_symbol
 _atom_site_label
 _atom_site_symmetry_multiplicity
 _atom_site_fract_x
 _atom_site_fract_y
 _atom_site_fract_z
 _atom_site_occupancy
  Mo  Mo0  1  0.83471819  1.02260191  0.84775915  1
  Mo  Mo1  1  2.58519250  1.23134347  2.64326162  1
  Mo  Mo2  1  2.62641017  3.05387237  0.80106308  1
  Mo  Mo3  1  0.63142466  2.87299756  2.48998932  1
  Mo  Mo4  1  3.33887275  4.09040766  3.39103658  1
  Mo  Mo5  1  5.00830913  6.13561148  5.08655487  1
