# generated using pymatgen
data_Mo
_symmetry_space_group_name_H-M   'P 1'
_cell_length_a   9.48969964
_cell_length_b   9.48969964
_cell_length_c   9.48969964
_cell_angle_alpha   90.00000000
_cell_angle_beta   90.00000000
_cell_angle_gamma   90.00000000
_symmetry_Int_Tables_number   1
_chemical_formula_structural   Mo
_chemical_formula_sum   Mo53
_cell_volume   854.58919962
_cell_formula_units_Z   53
loop_
 _symmetry_equiv_pos_site_id
 _symmetry_equiv_pos_as_xyz
  1  'x, y, z'
loop_
 _atom_site_type_symbol
 _atom_site_label
 _atom_site_symmetry_multiplicity
 _atom_site_fract_x
 _atom_site_fract_y
 _atom_site_fract_z
 _atom_site_occupancy
  Mo  Mo0  1  1.53932844  1.56340489  1.55336228  1
  Mo  Mo1  1  -0.05987739  -0.03407254  3.13121799  1
  Mo  Mo2  1  1.53736819  1.54588724  4.73274896  1
  Mo  Mo3  1  -0.03880765  -0.02247430  6.36571192  1
  Mo  Mo4  1  1.52247490  1.56025510  7.94787962  1
  Mo  Mo5  1  -0.00481070  3.15049586  0.00225406  1
  Mo  Mo6  1  1.57477992  4.69180823  1.45839346  1
  Mo  Mo7  1  0.02316188  3.15997761  3.16150787  1
  Mo  Mo8  1  1.50560813  4.74465201  4.74486502  1
  Mo  Mo9  1  -0.03291178  3.18008029  6.35408676  1
  Mo  Mo10  1  1.49648043  4.72917504  7.90017478  1
  Mo  Mo11  1  -0.02230999  6.36979145  0.00565403  1
  Mo  Mo12  1  1.54786981  7.89276855  1.57195678  1
  Mo  Mo13  1  0.03978230  6.31244281  3.20635618  1
  Mo  Mo14  1  1.64275019  7.95740127  4.65245265  1
  Mo  Mo15  1  0.04313203  6.37145305  6.31726595  1
  Mo  Mo16  1  1.57865110  7.95201446  7.97387462  1
  Mo  Mo17  1  3.16946794  0.00617834  0.02875664  1
  Mo  Mo18  1  4.77373210  1.61151428  1.52132041  1
  Mo  Mo19  1  3.22450488  -0.03420757  3.17737745  1
  Mo  Mo20  1  4.75603625  1.58680534  4.71329279  1
  Mo  Mo21  1  3.19791924  0.02368280  6.31326047  1
  Mo  Mo22  1  4.74456339  1.55364441  7.91287524  1
  Mo  Mo23  1  3.23497265  3.13618447  0.01216352  1
  Mo  Mo24  1  4.76216958  4.84899945  1.57859414  1
  Mo  Mo25  1  3.16080331  3.22188137  3.12442194  1
  Mo  Mo26  1  4.72845596  4.70633695  4.81920579  1
  Mo  Mo27  1  3.17214748  3.17378693  6.29689223  1
  Mo  Mo28  1  4.71813454  4.77049177  7.90005400  1
  Mo  Mo29  1  3.19648562  6.29148780  -0.06634705  1
  Mo  Mo30  1  4.74460300  7.94731289  1.59295686  1
  Mo  Mo31  1  3.23641114  6.28974272  3.18492590  1
  Mo  Mo32  1  4.75665648  7.85895080  4.82001804  1
  Mo  Mo33  1  3.16558914  6.34125236  6.29934085  1
  Mo  Mo34  1  4.69114432  7.86446928  7.88191355  1
  Mo  Mo35  1  6.35930529  -0.02720631  -0.06249197  1
  Mo  Mo36  1  7.90402125  1.59308751  1.59054977  1
  Mo  Mo37  1  6.24465755  0.00881452  3.11065252  1
  Mo  Mo38  1  7.83850446  1.54869053  4.72905447  1
  Mo  Mo39  1  6.34139941  0.04638152  6.26699845  1
  Mo  Mo40  1  7.93250485  1.48256461  7.95372390  1
  Mo  Mo41  1  6.33477903  3.16431796  0.01669823  1
  Mo  Mo42  1  7.97059544  4.73913766  1.63861789  1
  Mo  Mo43  1  6.29975494  3.24911718  3.15725516  1
  Mo  Mo44  1  7.99136734  4.76865383  4.77192690  1
  Mo  Mo45  1  6.35098280  3.14255517  6.32451087  1
  Mo  Mo46  1  7.87926496  4.74221240  7.97128720  1
  Mo  Mo47  1  6.27178760  6.31843659  -0.02887058  1
  Mo  Mo48  1  7.89101209  7.93600626  1.57758199  1
  Mo  Mo49  1  6.31441724  6.35946658  3.25505390  1
  Mo  Mo50  1  7.97934973  7.93369326  4.78858824  1
  Mo  Mo51  1  6.36003931  6.29171256  6.32832036  1
  Mo  Mo52  1  7.92803366  7.89702550  7.93799975  1
