# generated using pymatgen
data_Mo
_symmetry_space_group_name_H-M   'P 1'
_cell_length_a   5.56231441
_cell_length_b   5.34343662
_cell_length_c   5.13501280
_cell_angle_alpha   61.28529143
_cell_angle_beta   59.90136954
_cell_angle_gamma   62.87991243
_symmetry_Int_Tables_number   1
_chemical_formula_structural   Mo
_chemical_formula_sum   Mo6
_cell_volume   111.06239270
_cell_formula_units_Z   6
loop_
 _symmetry_equiv_pos_site_id
 _symmetry_equiv_pos_as_xyz
  1  'x, y, z'
loop_
 _atom_site_type_symbol
 _atom_site_label
 _atom_site_symmetry_multiplicity
 _atom_site_fract_x
 _atom_site_fract_y
 _atom_site_fract_z
 _atom_site_occupancy
  Mo  Mo0  1  0.91928809  0.92324595  0.96284826  1
  Mo  Mo1  1  2.84501449  0.81992011  2.81189676  1
  Mo  Mo2  1  2.70714980  2.76582421  0.98619267  1
  Mo  Mo3  1  0.88285232  2.87697731  2.94184841  1
  Mo  Mo4  1  3.67715235  3.69298379  3.85139305  1
  Mo  Mo5  1  5.51572852  5.53947568  5.77708957  1
