# generated using pymatgen
data_Mo
_symmetry_space_group_name_H-M   'P 1'
_cell_length_a   5.37252744
_cell_length_b   4.96690742
_cell_length_c   5.22217335
_cell_angle_alpha   60.45136416
_cell_angle_beta   54.71930104
_cell_angle_gamma   54.23755533
_symmetry_Int_Tables_number   1
_chemical_formula_structural   Mo
_chemical_formula_sum   Mo6
_cell_volume   89.72569985
_cell_formula_units_Z   6
loop_
 _symmetry_equiv_pos_site_id
 _symmetry_equiv_pos_as_xyz
  1  'x, y, z'
loop_
 _atom_site_type_symbol
 _atom_site_label
 _atom_site_symmetry_multiplicity
 _atom_site_fract_x
 _atom_site_fract_y
 _atom_site_fract_z
 _atom_site_occupancy
  Mo  Mo0  1  0.90888763  0.95618849  0.95692402  1
  Mo  Mo1  1  2.61323967  0.99692683  2.76276644  1
  Mo  Mo2  1  2.65597651  2.89508865  1.03515592  1
  Mo  Mo3  1  1.09299721  2.80130395  2.90054573  1
  Mo  Mo4  1  3.63555051  3.82475397  3.82769604  1
  Mo  Mo5  1  5.45332576  5.73713095  5.74154407  1
