# generated using pymatgen
data_Mo
_symmetry_space_group_name_H-M   'P 1'
_cell_length_a   4.89795924
_cell_length_b   5.61896646
_cell_length_c   4.92503910
_cell_angle_alpha   62.03622275
_cell_angle_beta   57.94936252
_cell_angle_gamma   62.64947095
_symmetry_Int_Tables_number   1
_chemical_formula_structural   Mo
_chemical_formula_sum   Mo6
_cell_volume   97.37336351
_cell_formula_units_Z   6
loop_
 _symmetry_equiv_pos_site_id
 _symmetry_equiv_pos_as_xyz
  1  'x, y, z'
loop_
 _atom_site_type_symbol
 _atom_site_label
 _atom_site_symmetry_multiplicity
 _atom_site_fract_x
 _atom_site_fract_y
 _atom_site_fract_z
 _atom_site_occupancy
  Mo  Mo0  1  1.00563557  0.82412326  0.87027124  1
  Mo  Mo1  1  3.05108026  0.64102500  2.78751589  1
  Mo  Mo2  1  2.81378731  2.49402856  0.79277219  1
  Mo  Mo3  1  1.17458138  2.63380930  2.51161061  1
  Mo  Mo4  1  4.02254226  3.29649307  3.48108496  1
  Mo  Mo5  1  6.03381338  4.94473960  5.22162744  1
