# generated using pymatgen
data_Mo
_symmetry_space_group_name_H-M   'P 1'
_cell_length_a   5.11123251
_cell_length_b   5.11409358
_cell_length_c   5.12197046
_cell_angle_alpha   53.33941970
_cell_angle_beta   59.84874981
_cell_angle_gamma   62.76673386
_symmetry_Int_Tables_number   1
_chemical_formula_structural   Mo
_chemical_formula_sum   Mo6
_cell_volume   90.43725423
_cell_formula_units_Z   6
loop_
 _symmetry_equiv_pos_site_id
 _symmetry_equiv_pos_as_xyz
  1  'x, y, z'
loop_
 _atom_site_type_symbol
 _atom_site_label
 _atom_site_symmetry_multiplicity
 _atom_site_fract_x
 _atom_site_fract_y
 _atom_site_fract_z
 _atom_site_occupancy
  Mo  Mo0  1  0.98026374  0.92989160  0.82135799  1
  Mo  Mo1  1  2.91387710  1.02925077  2.49161408  1
  Mo  Mo2  1  2.93386761  2.58570220  0.80216080  1
  Mo  Mo3  1  1.01410147  2.89428823  2.45573106  1
  Mo  Mo4  1  3.92105496  3.71956640  3.28543197  1
  Mo  Mo5  1  5.88158244  5.57934961  4.92814795  1
