# generated using pymatgen
data_Mo
_symmetry_space_group_name_H-M   'P 1'
_cell_length_a   9.48969964
_cell_length_b   9.48969964
_cell_length_c   9.48969964
_cell_angle_alpha   90.00000000
_cell_angle_beta   90.00000000
_cell_angle_gamma   90.00000000
_symmetry_Int_Tables_number   1
_chemical_formula_structural   Mo
_chemical_formula_sum   Mo53
_cell_volume   854.58919962
_cell_formula_units_Z   53
loop_
 _symmetry_equiv_pos_site_id
 _symmetry_equiv_pos_as_xyz
  1  'x, y, z'
loop_
 _atom_site_type_symbol
 _atom_site_label
 _atom_site_symmetry_multiplicity
 _atom_site_fract_x
 _atom_site_fract_y
 _atom_site_fract_z
 _atom_site_occupancy
  Mo  Mo0  1  1.55497225  1.53807520  1.50022265  1
  Mo  Mo1  1  -0.04390310  -0.01376309  3.08088216  1
  Mo  Mo2  1  1.53649496  1.56411282  4.77640685  1
  Mo  Mo3  1  -0.00281050  0.01156490  6.37154338  1
  Mo  Mo4  1  1.50189476  1.55230616  7.95685100  1
  Mo  Mo5  1  -0.00350436  3.13474718  -0.01524248  1
  Mo  Mo6  1  1.59605397  4.73245813  1.49277162  1
  Mo  Mo7  1  0.04553128  3.15832496  3.18848937  1
  Mo  Mo8  1  1.57027838  4.75738038  4.77283190  1
  Mo  Mo9  1  0.02899825  3.22211390  6.31978861  1
  Mo  Mo10  1  1.51036832  4.75194075  7.88679704  1
  Mo  Mo11  1  -0.03739153  6.39336532  0.00266290  1
  Mo  Mo12  1  1.57530719  7.92051202  1.53039660  1
  Mo  Mo13  1  0.00540961  6.31129587  3.13458336  1
  Mo  Mo14  1  1.66313503  7.92826016  4.70457158  1
  Mo  Mo15  1  0.00088114  6.33170554  6.33155350  1
  Mo  Mo16  1  1.58647834  7.99074312  7.99047186  1
  Mo  Mo17  1  3.13935702  -0.03464970  0.03392951  1
  Mo  Mo18  1  4.78306934  1.58953392  1.56811349  1
  Mo  Mo19  1  3.17889586  0.01374226  3.15180659  1
  Mo  Mo20  1  4.70639180  1.60049328  4.71002996  1
  Mo  Mo21  1  3.21590689  -0.00081304  6.31941889  1
  Mo  Mo22  1  4.68719743  1.57568586  7.89561476  1
  Mo  Mo23  1  3.25541455  3.13479428  0.05577932  1
  Mo  Mo24  1  4.77492758  4.78743623  1.59596291  1
  Mo  Mo25  1  3.13834779  3.19260304  3.16513440  1
  Mo  Mo26  1  4.75312994  4.74201703  4.74880473  1
  Mo  Mo27  1  3.22247247  3.16630818  6.30129416  1
  Mo  Mo28  1  4.73808561  4.72617920  7.89988728  1
  Mo  Mo29  1  3.17332830  6.29090799  -0.03196755  1
  Mo  Mo30  1  4.75449241  7.93488122  1.60086178  1
  Mo  Mo31  1  3.23865747  6.26181648  3.19064736  1
  Mo  Mo32  1  4.79777517  7.92669777  4.78977854  1
  Mo  Mo33  1  3.16791231  6.31232330  6.32536499  1
  Mo  Mo34  1  4.67032212  7.87385327  7.94641207  1
  Mo  Mo35  1  6.33154220  -0.03777138  -0.03496666  1
  Mo  Mo36  1  7.93353700  1.58942819  1.55748734  1
  Mo  Mo37  1  6.21591792  -0.00643212  3.10601484  1
  Mo  Mo38  1  7.84399280  1.52354592  4.76740011  1
  Mo  Mo39  1  6.27698744  0.01237932  6.23678791  1
  Mo  Mo40  1  7.89015280  1.59150523  7.93908742  1
  Mo  Mo41  1  6.33597136  3.22461061  0.04368038  1
  Mo  Mo42  1  7.94776143  4.77250801  1.58447796  1
  Mo  Mo43  1  6.30834229  3.15360675  3.14632625  1
  Mo  Mo44  1  7.91990654  4.72344881  4.73849886  1
  Mo  Mo45  1  6.33915417  3.17306754  6.32562262  1
  Mo  Mo46  1  7.86805360  4.71403742  7.96676617  1
  Mo  Mo47  1  6.26466788  6.29783030  0.01397888  1
  Mo  Mo48  1  7.91907892  7.93025460  1.56717244  1
  Mo  Mo49  1  6.32578282  6.34454127  3.17876401  1
  Mo  Mo50  1  8.01785450  7.90539947  4.79356268  1
  Mo  Mo51  1  6.33270042  6.33455278  6.34117710  1
  Mo  Mo52  1  7.96296159  7.89277618  7.95394937  1
