# generated using pymatgen
data_Mo
_symmetry_space_group_name_H-M   'P 1'
_cell_length_a   9.48969964
_cell_length_b   9.48969964
_cell_length_c   9.48969964
_cell_angle_alpha   90.00000000
_cell_angle_beta   90.00000000
_cell_angle_gamma   90.00000000
_symmetry_Int_Tables_number   1
_chemical_formula_structural   Mo
_chemical_formula_sum   Mo53
_cell_volume   854.58919962
_cell_formula_units_Z   53
loop_
 _symmetry_equiv_pos_site_id
 _symmetry_equiv_pos_as_xyz
  1  'x, y, z'
loop_
 _atom_site_type_symbol
 _atom_site_label
 _atom_site_symmetry_multiplicity
 _atom_site_fract_x
 _atom_site_fract_y
 _atom_site_fract_z
 _atom_site_occupancy
  Mo  Mo0  1  1.63355276  1.58900339  1.57888099  1
  Mo  Mo1  1  -0.00444224  -0.00434216  3.08511431  1
  Mo  Mo2  1  1.59030882  1.58958638  4.70082049  1
  Mo  Mo3  1  -0.01983053  0.03990254  6.36996582  1
  Mo  Mo4  1  1.56894371  1.54477286  7.93693790  1
  Mo  Mo5  1  -0.00065546  3.07377455  0.03962365  1
  Mo  Mo6  1  1.60113640  4.71763490  1.56693453  1
  Mo  Mo7  1  -0.01841267  3.14609044  3.17477925  1
  Mo  Mo8  1  1.59769930  4.75492700  4.71393338  1
  Mo  Mo9  1  -0.02949209  3.20098552  6.32257660  1
  Mo  Mo10  1  1.46552845  4.72556665  7.85955149  1
  Mo  Mo11  1  0.07824265  6.37658037  -0.01695792  1
  Mo  Mo12  1  1.64054900  7.92473576  1.61198623  1
  Mo  Mo13  1  0.06465517  6.28757427  3.14996546  1
  Mo  Mo14  1  1.57231923  7.84355315  4.78366401  1
  Mo  Mo15  1  0.00849469  6.38094012  6.26610725  1
  Mo  Mo16  1  1.52878918  7.91965578  7.91819834  1
  Mo  Mo17  1  3.15465954  0.02988292  0.02418285  1
  Mo  Mo18  1  4.75328480  1.60219323  1.57716720  1
  Mo  Mo19  1  3.13316220  -0.00375238  3.17892376  1
  Mo  Mo20  1  4.74737491  1.55070711  4.72313628  1
  Mo  Mo21  1  3.15145001  0.00846167  6.31750296  1
  Mo  Mo22  1  4.76381245  1.55386176  7.94216055  1
  Mo  Mo23  1  3.09177385  3.17912182  -0.01049012  1
  Mo  Mo24  1  4.74399477  4.71688921  1.54659456  1
  Mo  Mo25  1  3.17456992  3.17831461  3.19529170  1
  Mo  Mo26  1  4.74547662  4.70107252  4.76173171  1
  Mo  Mo27  1  3.10312514  3.18415694  6.32392143  1
  Mo  Mo28  1  4.71042901  4.74173321  7.93644516  1
  Mo  Mo29  1  3.17284738  6.35963943  0.01808809  1
  Mo  Mo30  1  4.76420048  7.93080392  1.62792583  1
  Mo  Mo31  1  3.21042813  6.32027446  3.20097811  1
  Mo  Mo32  1  4.69510008  7.96096540  4.73461365  1
  Mo  Mo33  1  3.17034080  6.33036037  6.39476641  1
  Mo  Mo34  1  4.70267575  7.94406441  7.94513940  1
  Mo  Mo35  1  6.40289138  -0.02922216  0.01145480  1
  Mo  Mo36  1  7.90431037  1.60441865  1.52309662  1
  Mo  Mo37  1  6.32128925  -0.02464723  3.12866154  1
  Mo  Mo38  1  7.94678175  1.57271013  4.76623969  1
  Mo  Mo39  1  6.33471901  -0.01764490  6.28030926  1
  Mo  Mo40  1  7.94252958  1.58860628  7.90570475  1
  Mo  Mo41  1  6.35472943  3.17983859  -0.00268609  1
  Mo  Mo42  1  7.91936047  4.77198930  1.51785054  1
  Mo  Mo43  1  6.31209973  3.12545284  3.15149299  1
  Mo  Mo44  1  7.87484149  4.78912971  4.75950361  1
  Mo  Mo45  1  6.27041625  3.12136421  6.30337746  1
  Mo  Mo46  1  7.88422090  4.72004306  7.95085816  1
  Mo  Mo47  1  6.37862844  6.34684258  -0.02859282  1
  Mo  Mo48  1  7.92123940  7.93785347  1.61163336  1
  Mo  Mo49  1  6.36000771  6.28624620  3.18505909  1
  Mo  Mo50  1  7.89318337  7.95080223  4.73077213  1
  Mo  Mo51  1  6.29078584  6.31391300  6.35981760  1
  Mo  Mo52  1  7.94011720  7.88085469  7.86352875  1
