# generated using pymatgen
data_Mo
_symmetry_space_group_name_H-M   'P 1'
_cell_length_a   9.46603805
_cell_length_b   9.46603785
_cell_length_c   9.46603779
_cell_angle_alpha   90.00000282
_cell_angle_beta   89.99999931
_cell_angle_gamma   89.99999840
_symmetry_Int_Tables_number   1
_chemical_formula_structural   Mo
_chemical_formula_sum   Mo53
_cell_volume   848.21259331
_cell_formula_units_Z   53
loop_
 _symmetry_equiv_pos_site_id
 _symmetry_equiv_pos_as_xyz
  1  'x, y, z'
loop_
 _atom_site_type_symbol
 _atom_site_label
 _atom_site_symmetry_multiplicity
 _atom_site_fract_x
 _atom_site_fract_y
 _atom_site_fract_z
 _atom_site_occupancy
  Mo  Mo0  1  1.48203987  1.61266411  1.73980944  1
  Mo  Mo1  1  0.08610619  -0.04362455  3.15120728  1
  Mo  Mo2  1  1.49991033  1.54461242  4.75545356  1
  Mo  Mo3  1  0.01256746  -0.04498838  6.33544397  1
  Mo  Mo4  1  1.55778885  1.57182138  7.81265079  1
  Mo  Mo5  1  -0.01585327  3.10285267  -0.06962062  1
  Mo  Mo6  1  1.46959501  4.65020944  1.53207266  1
  Mo  Mo7  1  -0.03994244  3.10841034  3.14373441  1
  Mo  Mo8  1  1.52056620  4.66322193  4.75614827  1
  Mo  Mo9  1  -0.08179462  3.10058927  6.26103746  1
  Mo  Mo10  1  1.50026908  4.77301787  7.89109199  1
  Mo  Mo11  1  0.09782582  6.45049832  0.02880405  1
  Mo  Mo12  1  1.61622477  7.89613219  1.60975590  1
  Mo  Mo13  1  0.12887998  6.23131599  3.24034075  1
  Mo  Mo14  1  1.60850736  7.82878659  4.75372872  1
  Mo  Mo15  1  0.03815607  6.27577940  6.34933857  1
  Mo  Mo16  1  1.47736126  7.98211122  7.90323139  1
  Mo  Mo17  1  3.12726457  -0.05311203  -0.02790073  1
  Mo  Mo18  1  4.67673174  1.64763411  1.64609776  1
  Mo  Mo19  1  3.22169883  -0.00468560  3.17354289  1
  Mo  Mo20  1  4.61907004  1.60781434  4.73267886  1
  Mo  Mo21  1  3.20847338  -0.03571767  6.26740201  1
  Mo  Mo22  1  4.78603835  1.50451820  7.95731771  1
  Mo  Mo23  1  3.16532841  3.08750847  0.01060559  1
  Mo  Mo24  1  4.73798324  4.80246517  1.49378156  1
  Mo  Mo25  1  3.11438370  3.13139209  3.19813185  1
  Mo  Mo26  1  4.65830087  4.79996038  4.66080534  1
  Mo  Mo27  1  3.16277594  3.18342844  6.33942021  1
  Mo  Mo28  1  4.68994143  4.74435678  7.97559952  1
  Mo  Mo29  1  3.17926296  6.27306314  0.00666480  1
  Mo  Mo30  1  4.70542263  7.90174747  1.46368711  1
  Mo  Mo31  1  3.20726348  6.24552303  3.13537573  1
  Mo  Mo32  1  4.80062928  7.87987020  4.56223506  1
  Mo  Mo33  1  3.20771452  6.28659576  6.29232821  1
  Mo  Mo34  1  4.70277635  7.90214731  7.76816367  1
  Mo  Mo35  1  6.35775849  0.04282968  0.08358750  1
  Mo  Mo36  1  7.86478394  1.67067347  1.51692441  1
  Mo  Mo37  1  6.36056360  0.17318863  3.15622825  1
  Mo  Mo38  1  7.86106781  1.52017447  4.76280169  1
  Mo  Mo39  1  6.25492836  0.04381402  6.23954286  1
  Mo  Mo40  1  7.90263343  1.40594718  7.91865204  1
  Mo  Mo41  1  6.31271924  3.28800101  0.09614927  1
  Mo  Mo42  1  8.00326881  4.74080835  1.48201584  1
  Mo  Mo43  1  6.21427919  3.26341798  3.16532647  1
  Mo  Mo44  1  7.86918385  4.64274297  4.75871288  1
  Mo  Mo45  1  6.11357935  3.16740273  6.38585170  1
  Mo  Mo46  1  7.92833755  4.68930203  7.87065750  1
  Mo  Mo47  1  6.34672162  6.47500723  0.04615076  1
  Mo  Mo48  1  8.01154217  7.91677234  1.66645100  1
  Mo  Mo49  1  6.38566564  6.37372004  3.10531198  1
  Mo  Mo50  1  8.07554376  7.73906441  4.73262957  1
  Mo  Mo51  1  6.27920668  6.33559079  6.30840761  1
  Mo  Mo52  1  7.91481319  7.88947617  7.84028318  1
