# generated using pymatgen
data_Mo
_symmetry_space_group_name_H-M   'P 1'
_cell_length_a   4.08780044
_cell_length_b   3.99915500
_cell_length_c   3.96899831
_cell_angle_alpha   59.04804088
_cell_angle_beta   59.02881416
_cell_angle_gamma   58.87605294
_symmetry_Int_Tables_number   1
_chemical_formula_structural   Mo
_chemical_formula_sum   Mo2
_cell_volume   44.81672483
_cell_formula_units_Z   2
loop_
 _symmetry_equiv_pos_site_id
 _symmetry_equiv_pos_as_xyz
  1  'x, y, z'
loop_
 _atom_site_type_symbol
 _atom_site_label
 _atom_site_symmetry_multiplicity
 _atom_site_fract_x
 _atom_site_fract_y
 _atom_site_fract_z
 _atom_site_occupancy
  Mo  Mo0  1  0.00000000  0.00000000  0.00000000  1
  Mo  Mo1  1  1.40629916  1.44155720  1.44675802  1
