# generated using pymatgen
data_Mo
_symmetry_space_group_name_H-M   'P 1'
_cell_length_a   9.46603805
_cell_length_b   9.46603785
_cell_length_c   9.46603779
_cell_angle_alpha   90.00000282
_cell_angle_beta   89.99999931
_cell_angle_gamma   89.99999840
_symmetry_Int_Tables_number   1
_chemical_formula_structural   Mo
_chemical_formula_sum   Mo53
_cell_volume   848.21259331
_cell_formula_units_Z   53
loop_
 _symmetry_equiv_pos_site_id
 _symmetry_equiv_pos_as_xyz
  1  'x, y, z'
loop_
 _atom_site_type_symbol
 _atom_site_label
 _atom_site_symmetry_multiplicity
 _atom_site_fract_x
 _atom_site_fract_y
 _atom_site_fract_z
 _atom_site_occupancy
  Mo  Mo0  1  1.53200264  1.58024149  1.69022989  1
  Mo  Mo1  1  -0.00410106  0.01862687  3.10190684  1
  Mo  Mo2  1  1.58817588  1.64698115  4.81232333  1
  Mo  Mo3  1  -0.01911126  -0.00327411  6.36990513  1
  Mo  Mo4  1  1.64495139  1.63847229  7.79873835  1
  Mo  Mo5  1  -0.06794927  3.13128160  0.06934272  1
  Mo  Mo6  1  1.55072783  4.71882593  1.46144299  1
  Mo  Mo7  1  0.09995288  3.25406615  3.16052555  1
  Mo  Mo8  1  1.57264787  4.75059657  4.73468615  1
  Mo  Mo9  1  0.02290595  3.24067788  6.41319138  1
  Mo  Mo10  1  1.61227540  4.80148298  7.85238571  1
  Mo  Mo11  1  -0.09198596  6.37343058  -0.01004724  1
  Mo  Mo12  1  1.37694170  7.90942610  1.52500900  1
  Mo  Mo13  1  0.02442712  6.38240636  3.13651175  1
  Mo  Mo14  1  1.48464432  7.93714341  4.75492468  1
  Mo  Mo15  1  0.06303508  6.34556997  6.25294874  1
  Mo  Mo16  1  1.54736181  7.85814866  7.95569397  1
  Mo  Mo17  1  3.07199894  -0.02941469  -0.00014224  1
  Mo  Mo18  1  4.76637639  1.47953549  1.57212404  1
  Mo  Mo19  1  3.19848879  -0.08285726  3.12851348  1
  Mo  Mo20  1  4.82056497  1.48139832  4.72379123  1
  Mo  Mo21  1  3.17752048  -0.02540586  6.27210968  1
  Mo  Mo22  1  4.79611756  1.61683914  7.78932814  1
  Mo  Mo23  1  3.14611757  3.11793330  0.02465801  1
  Mo  Mo24  1  4.74365563  4.66203260  1.52851909  1
  Mo  Mo25  1  3.25803458  3.05043404  3.27111393  1
  Mo  Mo26  1  4.70616809  4.70899734  4.77110335  1
  Mo  Mo27  1  3.20458211  3.15509053  6.27673650  1
  Mo  Mo28  1  4.77332945  4.69422520  7.90414954  1
  Mo  Mo29  1  3.18864188  6.27335351  -0.04316303  1
  Mo  Mo30  1  4.72243323  7.80475392  1.54619154  1
  Mo  Mo31  1  3.23740234  6.28867124  3.08207704  1
  Mo  Mo32  1  4.73088187  7.91257681  4.83432652  1
  Mo  Mo33  1  3.11653615  6.33890523  6.31961068  1
  Mo  Mo34  1  4.77130620  7.88432915  7.97302791  1
  Mo  Mo35  1  6.40506096  -0.08429461  -0.02382826  1
  Mo  Mo36  1  7.87688719  1.71110209  1.55342148  1
  Mo  Mo37  1  6.25073706  -0.00439004  3.12485100  1
  Mo  Mo38  1  7.88583076  1.58954873  4.70529762  1
  Mo  Mo39  1  6.26959944  -0.01513871  6.42172130  1
  Mo  Mo40  1  7.94110135  1.51230901  7.95465074  1
  Mo  Mo41  1  6.25636817  3.10007950  -0.04078143  1
  Mo  Mo42  1  7.78730559  4.68945604  1.58935597  1
  Mo  Mo43  1  6.36051702  3.15459547  3.04436035  1
  Mo  Mo44  1  7.93264571  4.75991860  4.68114817  1
  Mo  Mo45  1  6.35515892  3.14325266  6.34774333  1
  Mo  Mo46  1  7.86720443  4.73777998  7.87950748  1
  Mo  Mo47  1  6.34225552  6.23215637  0.03557545  1
  Mo  Mo48  1  7.84009525  8.00795828  1.62944140  1
  Mo  Mo49  1  6.24707228  6.39577032  3.17429213  1
  Mo  Mo50  1  7.77307853  7.92817093  4.74481251  1
  Mo  Mo51  1  6.31976681  6.30732940  6.35020467  1
  Mo  Mo52  1  7.90812074  7.90474743  7.76028202  1
