# generated using pymatgen
data_Mo
_symmetry_space_group_name_H-M   'P 1'
_cell_length_a   9.46603805
_cell_length_b   9.46603785
_cell_length_c   9.46603779
_cell_angle_alpha   90.00000282
_cell_angle_beta   89.99999931
_cell_angle_gamma   89.99999840
_symmetry_Int_Tables_number   1
_chemical_formula_structural   Mo
_chemical_formula_sum   Mo53
_cell_volume   848.21259331
_cell_formula_units_Z   53
loop_
 _symmetry_equiv_pos_site_id
 _symmetry_equiv_pos_as_xyz
  1  'x, y, z'
loop_
 _atom_site_type_symbol
 _atom_site_label
 _atom_site_symmetry_multiplicity
 _atom_site_fract_x
 _atom_site_fract_y
 _atom_site_fract_z
 _atom_site_occupancy
  Mo  Mo0  1  1.52065777  1.52207419  1.65892398  1
  Mo  Mo1  1  -0.03948603  -0.04507423  3.07228375  1
  Mo  Mo2  1  1.39194650  1.50488358  4.75211762  1
  Mo  Mo3  1  0.04021170  0.02570956  6.36021030  1
  Mo  Mo4  1  1.49919116  1.51755779  7.85272387  1
  Mo  Mo5  1  -0.05129073  3.21897706  0.04015272  1
  Mo  Mo6  1  1.62128608  4.68030771  1.52034178  1
  Mo  Mo7  1  0.11178855  3.14574939  3.17039843  1
  Mo  Mo8  1  1.48292634  4.75044626  4.66273904  1
  Mo  Mo9  1  -0.14014795  3.19546528  6.41384676  1
  Mo  Mo10  1  1.49343095  4.69484649  7.88426373  1
  Mo  Mo11  1  0.00416499  6.27635814  -0.00390409  1
  Mo  Mo12  1  1.62434244  7.88181832  1.44231264  1
  Mo  Mo13  1  0.12098283  6.23105544  3.19904064  1
  Mo  Mo14  1  1.59735543  7.99904995  4.71751162  1
  Mo  Mo15  1  -0.00206934  6.33692808  6.41688366  1
  Mo  Mo16  1  1.55848262  7.81560241  7.99083036  1
  Mo  Mo17  1  3.22046628  0.02362463  -0.01704912  1
  Mo  Mo18  1  4.65668021  1.59814497  1.54280368  1
  Mo  Mo19  1  3.19250207  0.03456067  3.13435419  1
  Mo  Mo20  1  4.77276693  1.54668839  4.74318393  1
  Mo  Mo21  1  3.14944356  -0.03509605  6.37403681  1
  Mo  Mo22  1  4.72372821  1.55320025  7.87337597  1
  Mo  Mo23  1  3.14112449  3.07523934  0.06311181  1
  Mo  Mo24  1  4.85996655  4.81124216  1.60750561  1
  Mo  Mo25  1  3.19374970  3.15852656  3.23250732  1
  Mo  Mo26  1  4.66369737  4.71827954  4.67985704  1
  Mo  Mo27  1  3.09462706  3.09787090  6.26282127  1
  Mo  Mo28  1  4.66586633  4.70436648  7.75908393  1
  Mo  Mo29  1  3.30072715  6.33596088  0.03514242  1
  Mo  Mo30  1  4.77594589  7.96895917  1.47410044  1
  Mo  Mo31  1  3.21702534  6.35273960  3.13104162  1
  Mo  Mo32  1  4.83183079  7.96243316  4.84617722  1
  Mo  Mo33  1  3.14039658  6.27294136  6.33355750  1
  Mo  Mo34  1  4.78645833  7.89449247  7.87351206  1
  Mo  Mo35  1  6.37495149  0.02720968  -0.02151144  1
  Mo  Mo36  1  7.87679209  1.53145670  1.47797038  1
  Mo  Mo37  1  6.32860780  0.06217765  3.15308297  1
  Mo  Mo38  1  7.85679027  1.56231625  4.63316524  1
  Mo  Mo39  1  6.34764093  0.02554104  6.47240575  1
  Mo  Mo40  1  7.88505860  1.50114987  7.89838403  1
  Mo  Mo41  1  6.18266082  3.17957236  0.01341056  1
  Mo  Mo42  1  7.87110329  4.73915326  1.72766726  1
  Mo  Mo43  1  6.29439488  3.21410149  3.16372329  1
  Mo  Mo44  1  7.76710161  4.69515101  4.69379173  1
  Mo  Mo45  1  6.28386131  3.22070353  6.25250653  1
  Mo  Mo46  1  7.83401072  4.78406455  7.85325276  1
  Mo  Mo47  1  6.45021252  6.30545233  -0.00012316  1
  Mo  Mo48  1  7.96512818  7.94030683  1.52941764  1
  Mo  Mo49  1  6.28001675  6.39751826  3.18773388  1
  Mo  Mo50  1  7.86617590  7.85627435  4.73479231  1
  Mo  Mo51  1  6.29470321  6.30289599  6.32614266  1
  Mo  Mo52  1  8.00587768  7.81487830  7.79023733  1
