# generated using pymatgen
data_Mo
_symmetry_space_group_name_H-M   'P 1'
_cell_length_a   9.58283252
_cell_length_b   9.58283252
_cell_length_c   9.58283252
_cell_angle_alpha   90.00000000
_cell_angle_beta   90.00000000
_cell_angle_gamma   90.00000000
_symmetry_Int_Tables_number   1
_chemical_formula_structural   Mo
_chemical_formula_sum   Mo54
_cell_volume   879.99801873
_cell_formula_units_Z   54
loop_
 _symmetry_equiv_pos_site_id
 _symmetry_equiv_pos_as_xyz
  1  'x, y, z'
loop_
 _atom_site_type_symbol
 _atom_site_label
 _atom_site_symmetry_multiplicity
 _atom_site_fract_x
 _atom_site_fract_y
 _atom_site_fract_z
 _atom_site_occupancy
  Mo  Mo0  1  -0.12897752  0.01688191  -0.06444666  1
  Mo  Mo1  1  1.50708932  1.64877146  1.62760205  1
  Mo  Mo2  1  -0.04625864  -0.05874492  3.18713829  1
  Mo  Mo3  1  -0.14317850  3.26622570  0.05471498  1
  Mo  Mo4  1  0.02871692  3.18952134  3.37724596  1
  Mo  Mo5  1  3.22381738  -0.02434691  -0.08262445  1
  Mo  Mo6  1  3.28673978  0.09693188  3.24783652  1
  Mo  Mo7  1  3.03804884  3.29248888  0.03161362  1
  Mo  Mo8  1  3.23254529  3.17486559  3.08309838  1
  Mo  Mo9  1  4.72133479  1.70378016  1.47783740  1
  Mo  Mo10  1  6.22143383  0.00445598  -0.06734524  1
  Mo  Mo11  1  7.87797006  1.52833817  1.56978335  1
  Mo  Mo12  1  6.29010534  -0.02425933  3.16740864  1
  Mo  Mo13  1  6.46982689  3.24705210  0.01510912  1
  Mo  Mo14  1  6.52743708  3.10430751  3.20771194  1
  Mo  Mo15  1  1.65095593  1.51554914  4.79618236  1
  Mo  Mo16  1  0.13445555  -0.01981048  6.31278401  1
  Mo  Mo17  1  1.59485500  1.70152619  8.11799266  1
  Mo  Mo18  1  -0.02066748  3.23128426  6.49075799  1
  Mo  Mo19  1  3.20044364  -0.03734723  6.36755440  1
  Mo  Mo20  1  3.03179334  3.22373794  6.43303858  1
  Mo  Mo21  1  4.91040980  1.42972962  4.75507478  1
  Mo  Mo22  1  4.88894251  1.62728431  7.78609362  1
  Mo  Mo23  1  8.03655199  1.59009883  4.72667679  1
  Mo  Mo24  1  6.44957098  -0.00052247  6.35433841  1
  Mo  Mo25  1  7.97103802  1.53728453  7.99014213  1
  Mo  Mo26  1  6.45914289  3.16557171  6.47332202  1
  Mo  Mo27  1  1.64628912  4.91074740  1.80041276  1
  Mo  Mo28  1  -0.03208248  6.39908014  -0.02825302  1
  Mo  Mo29  1  1.66640602  7.95200342  1.72023312  1
  Mo  Mo30  1  0.11999442  6.46997583  3.26834066  1
  Mo  Mo31  1  3.19936134  6.32791637  0.08198421  1
  Mo  Mo32  1  3.20043372  6.33780602  3.20868502  1
  Mo  Mo33  1  4.76561976  4.75692164  1.58457810  1
  Mo  Mo34  1  4.86963982  8.09689275  1.61664996  1
  Mo  Mo35  1  7.86515125  4.83922617  1.61326405  1
  Mo  Mo36  1  6.37689794  6.46874459  -0.03597430  1
  Mo  Mo37  1  7.98173195  7.92246356  1.52929139  1
  Mo  Mo38  1  6.23332921  6.42652492  3.11367090  1
  Mo  Mo39  1  1.61086114  4.67380290  4.88318348  1
  Mo  Mo40  1  1.70831788  4.90450183  7.98792788  1
  Mo  Mo41  1  1.65974342  8.02572898  4.76580842  1
  Mo  Mo42  1  0.01932344  6.35496396  6.41888923  1
  Mo  Mo43  1  1.50444811  8.01514427  7.96101929  1
  Mo  Mo44  1  3.36429807  6.39021322  6.30068011  1
  Mo  Mo45  1  4.86527090  4.68444719  4.57700150  1
  Mo  Mo46  1  4.75837133  4.67049642  8.17200842  1
  Mo  Mo47  1  4.90792746  7.92934461  4.78731543  1
  Mo  Mo48  1  4.73684446  7.89198040  7.96728472  1
  Mo  Mo49  1  8.13965854  4.91552342  4.78768282  1
  Mo  Mo50  1  8.03974925  4.77882582  7.96451443  1
  Mo  Mo51  1  7.78012607  7.97419556  4.74810436  1
  Mo  Mo52  1  6.36864663  6.33147108  6.48944732  1
  Mo  Mo53  1  7.84324706  8.03412922  7.89335065  1
