# generated using pymatgen
data_Mo
_symmetry_space_group_name_H-M   'P 1'
_cell_length_a   9.46603805
_cell_length_b   9.46603785
_cell_length_c   9.46603779
_cell_angle_alpha   90.00000282
_cell_angle_beta   89.99999931
_cell_angle_gamma   89.99999840
_symmetry_Int_Tables_number   1
_chemical_formula_structural   Mo
_chemical_formula_sum   Mo53
_cell_volume   848.21259331
_cell_formula_units_Z   53
loop_
 _symmetry_equiv_pos_site_id
 _symmetry_equiv_pos_as_xyz
  1  'x, y, z'
loop_
 _atom_site_type_symbol
 _atom_site_label
 _atom_site_symmetry_multiplicity
 _atom_site_fract_x
 _atom_site_fract_y
 _atom_site_fract_z
 _atom_site_occupancy
  Mo  Mo0  1  1.57598762  1.53616766  1.47685124  1
  Mo  Mo1  1  0.00320086  -0.02088641  3.13487183  1
  Mo  Mo2  1  1.58750116  1.47038594  4.72971271  1
  Mo  Mo3  1  0.00878261  -0.01570959  6.34916152  1
  Mo  Mo4  1  1.51396078  1.50252962  7.88994399  1
  Mo  Mo5  1  0.02757834  3.19712249  -0.03325725  1
  Mo  Mo6  1  1.53629271  4.80133911  1.48471869  1
  Mo  Mo7  1  0.02464341  3.18040854  3.16286123  1
  Mo  Mo8  1  1.55087317  4.72221027  4.66636464  1
  Mo  Mo9  1  0.02624696  3.25861082  6.27047452  1
  Mo  Mo10  1  1.54765481  4.75013817  7.85734874  1
  Mo  Mo11  1  -0.06865748  6.33793700  -0.02341251  1
  Mo  Mo12  1  1.48637825  7.91728967  1.57507650  1
  Mo  Mo13  1  -0.00005180  6.30641499  3.15924120  1
  Mo  Mo14  1  1.50347572  7.89540187  4.74805478  1
  Mo  Mo15  1  -0.05931714  6.31760176  6.29484840  1
  Mo  Mo16  1  1.53226914  7.86789575  7.86387947  1
  Mo  Mo17  1  3.15315540  -0.03839325  -0.02423528  1
  Mo  Mo18  1  4.70519550  1.56392710  1.49422616  1
  Mo  Mo19  1  3.14507970  -0.03477101  3.18627377  1
  Mo  Mo20  1  4.77864671  1.55186633  4.63014927  1
  Mo  Mo21  1  3.23470565  -0.06093889  6.33467649  1
  Mo  Mo22  1  4.77306111  1.48144189  7.89618640  1
  Mo  Mo23  1  3.16448976  3.17882299  0.02012395  1
  Mo  Mo24  1  4.79583348  4.74530336  1.59051972  1
  Mo  Mo25  1  3.13412488  3.21485216  3.11473992  1
  Mo  Mo26  1  4.73771447  4.68997321  4.76316275  1
  Mo  Mo27  1  3.17706808  3.11270707  6.29558557  1
  Mo  Mo28  1  4.71766810  4.72959467  7.93361724  1
  Mo  Mo29  1  3.17059045  6.27480611  0.05376067  1
  Mo  Mo30  1  4.73121382  7.92381192  1.61840435  1
  Mo  Mo31  1  3.20595184  6.30239618  3.15158289  1
  Mo  Mo32  1  4.73707746  7.87695996  4.73618024  1
  Mo  Mo33  1  3.11303158  6.25392813  6.27108587  1
  Mo  Mo34  1  4.67184836  7.86410297  7.90810342  1
  Mo  Mo35  1  6.33156198  -0.05446005  0.05977640  1
  Mo  Mo36  1  7.98533287  1.64786252  1.47004898  1
  Mo  Mo37  1  6.35743781  -0.01538839  3.17287321  1
  Mo  Mo38  1  7.96503428  1.60765192  4.71220429  1
  Mo  Mo39  1  6.35766579  0.00067980  6.31516128  1
  Mo  Mo40  1  8.01618615  1.55056726  7.93573154  1
  Mo  Mo41  1  6.29044581  3.15117288  0.02952379  1
  Mo  Mo42  1  7.90471173  4.76397899  1.57554485  1
  Mo  Mo43  1  6.36084201  3.20092497  3.16089005  1
  Mo  Mo44  1  7.89196870  4.77496774  4.72882347  1
  Mo  Mo45  1  6.24448741  3.13886778  6.34021371  1
  Mo  Mo46  1  7.84712194  4.73556224  7.94998665  1
  Mo  Mo47  1  6.26585300  6.31048158  0.06427083  1
  Mo  Mo48  1  7.92737034  7.96788663  1.57892136  1
  Mo  Mo49  1  6.30667498  6.31435534  3.23010218  1
  Mo  Mo50  1  7.88157356  7.94579026  4.78328471  1
  Mo  Mo51  1  6.27846260  6.32268380  6.33868163  1
  Mo  Mo52  1  7.82985781  7.96701952  7.95892814  1
