# generated using pymatgen
data_Mo
_symmetry_space_group_name_H-M   'P 1'
_cell_length_a   9.46603805
_cell_length_b   9.46603785
_cell_length_c   9.46603779
_cell_angle_alpha   90.00000282
_cell_angle_beta   89.99999931
_cell_angle_gamma   89.99999840
_symmetry_Int_Tables_number   1
_chemical_formula_structural   Mo
_chemical_formula_sum   Mo53
_cell_volume   848.21259331
_cell_formula_units_Z   53
loop_
 _symmetry_equiv_pos_site_id
 _symmetry_equiv_pos_as_xyz
  1  'x, y, z'
loop_
 _atom_site_type_symbol
 _atom_site_label
 _atom_site_symmetry_multiplicity
 _atom_site_fract_x
 _atom_site_fract_y
 _atom_site_fract_z
 _atom_site_occupancy
  Mo  Mo0  1  1.61441477  1.53028509  1.47963694  1
  Mo  Mo1  1  -0.03478112  0.00519828  3.12156012  1
  Mo  Mo2  1  1.57314544  1.43351598  4.74126995  1
  Mo  Mo3  1  -0.00133213  -0.01941477  6.37344567  1
  Mo  Mo4  1  1.54620224  1.53360318  7.82872308  1
  Mo  Mo5  1  0.00658118  3.16955157  -0.02620363  1
  Mo  Mo6  1  1.50532707  4.77932336  1.54495096  1
  Mo  Mo7  1  0.01849739  3.19480615  3.18480768  1
  Mo  Mo8  1  1.57012539  4.75154259  4.63888632  1
  Mo  Mo9  1  0.00244599  3.25984543  6.23463171  1
  Mo  Mo10  1  1.53452601  4.77141665  7.90412113  1
  Mo  Mo11  1  -0.03514092  6.33133078  -0.02829266  1
  Mo  Mo12  1  1.55446163  7.93862402  1.55101924  1
  Mo  Mo13  1  -0.05642662  6.31521859  3.08221121  1
  Mo  Mo14  1  1.47318237  7.91321763  4.74644625  1
  Mo  Mo15  1  -0.03612418  6.29391306  6.27913925  1
  Mo  Mo16  1  1.53452167  7.88328710  7.87055090  1
  Mo  Mo17  1  3.14418087  -0.06896315  0.01531243  1
  Mo  Mo18  1  4.72894405  1.54560508  1.45257920  1
  Mo  Mo19  1  3.16550909  0.00986098  3.10878156  1
  Mo  Mo20  1  4.77157450  1.54803979  4.63968816  1
  Mo  Mo21  1  3.24784687  -0.04460250  6.33808165  1
  Mo  Mo22  1  4.74800401  1.49200144  7.93764901  1
  Mo  Mo23  1  3.18019896  3.18156601  0.01266478  1
  Mo  Mo24  1  4.75702040  4.78196493  1.62302676  1
  Mo  Mo25  1  3.14217714  3.21867756  3.11439610  1
  Mo  Mo26  1  4.75594657  4.71212870  4.82254372  1
  Mo  Mo27  1  3.16919171  3.09867176  6.34037803  1
  Mo  Mo28  1  4.71335137  4.75676617  7.97075181  1
  Mo  Mo29  1  3.15886875  6.27835056  0.02718381  1
  Mo  Mo30  1  4.70321261  7.96114476  1.60586237  1
  Mo  Mo31  1  3.18571536  6.24637460  3.16394098  1
  Mo  Mo32  1  4.76139049  7.82593421  4.74927854  1
  Mo  Mo33  1  3.15403713  6.21820074  6.29289431  1
  Mo  Mo34  1  4.66072663  7.86794143  7.89759136  1
  Mo  Mo35  1  6.32625352  -0.03248222  0.07503724  1
  Mo  Mo36  1  7.98328747  1.63521825  1.51321538  1
  Mo  Mo37  1  6.33848199  -0.00136854  3.13844838  1
  Mo  Mo38  1  8.01234704  1.61361604  4.68961528  1
  Mo  Mo39  1  6.37025416  -0.05954501  6.29015238  1
  Mo  Mo40  1  7.95669475  1.57806791  7.91081942  1
  Mo  Mo41  1  6.29077640  3.11508644  0.03094552  1
  Mo  Mo42  1  7.94907688  4.76890448  1.57082051  1
  Mo  Mo43  1  6.33505624  3.20264764  3.19239334  1
  Mo  Mo44  1  7.89441054  4.76431131  4.78015200  1
  Mo  Mo45  1  6.31903069  3.14623061  6.33883030  1
  Mo  Mo46  1  7.86978446  4.77097513  7.93104848  1
  Mo  Mo47  1  6.25811044  6.30056662  0.01078368  1
  Mo  Mo48  1  7.89458335  7.94093951  1.59177616  1
  Mo  Mo49  1  6.26717879  6.31020316  3.26872880  1
  Mo  Mo50  1  7.88146001  7.96964873  4.74930792  1
  Mo  Mo51  1  6.26793962  6.28370236  6.31986511  1
  Mo  Mo52  1  7.85361525  7.96420319  7.94440161  1
