# generated using pymatgen
data_Mo
_symmetry_space_group_name_H-M   'P 1'
_cell_length_a   9.46603805
_cell_length_b   9.46603785
_cell_length_c   9.46603779
_cell_angle_alpha   90.00000282
_cell_angle_beta   89.99999931
_cell_angle_gamma   89.99999840
_symmetry_Int_Tables_number   1
_chemical_formula_structural   Mo
_chemical_formula_sum   Mo53
_cell_volume   848.21259331
_cell_formula_units_Z   53
loop_
 _symmetry_equiv_pos_site_id
 _symmetry_equiv_pos_as_xyz
  1  'x, y, z'
loop_
 _atom_site_type_symbol
 _atom_site_label
 _atom_site_symmetry_multiplicity
 _atom_site_fract_x
 _atom_site_fract_y
 _atom_site_fract_z
 _atom_site_occupancy
  Mo  Mo0  1  1.56715824  1.60784997  1.54932560  1
  Mo  Mo1  1  0.01490424  -0.00500642  3.08666328  1
  Mo  Mo2  1  1.61779703  1.56738433  4.69091732  1
  Mo  Mo3  1  0.01254515  0.03113122  6.34460058  1
  Mo  Mo4  1  1.62815037  1.58252587  7.87163012  1
  Mo  Mo5  1  -0.03028673  3.07059789  0.01277964  1
  Mo  Mo6  1  1.63624012  4.70414018  1.53007116  1
  Mo  Mo7  1  -0.03476312  3.13094798  3.13719286  1
  Mo  Mo8  1  1.56893557  4.72163708  4.78688707  1
  Mo  Mo9  1  -0.01126050  3.10530493  6.38118118  1
  Mo  Mo10  1  1.52886669  4.72627857  7.87143996  1
  Mo  Mo11  1  0.05377872  6.35083279  -0.03198601  1
  Mo  Mo12  1  1.59376861  7.92765814  1.52359624  1
  Mo  Mo13  1  -0.03228857  6.30465767  3.09880738  1
  Mo  Mo14  1  1.56395717  7.88166173  4.68786464  1
  Mo  Mo15  1  0.04191150  6.33944856  6.24499400  1
  Mo  Mo16  1  1.53555125  7.93518655  7.91277890  1
  Mo  Mo17  1  3.10046238  0.06612444  -0.05020229  1
  Mo  Mo18  1  4.77369362  1.64397254  1.56243152  1
  Mo  Mo19  1  3.14940311  -0.01050845  3.17366271  1
  Mo  Mo20  1  4.74769667  1.54125942  4.78664735  1
  Mo  Mo21  1  3.15503117  -0.02040375  6.26772271  1
  Mo  Mo22  1  4.73559601  1.55225988  7.82376036  1
  Mo  Mo23  1  3.12005382  3.18411277  0.03313290  1
  Mo  Mo24  1  4.70396090  4.74912514  1.60071346  1
  Mo  Mo25  1  3.20059520  3.08881590  3.22502687  1
  Mo  Mo26  1  4.70914774  4.67838950  4.77448233  1
  Mo  Mo27  1  3.16607539  3.15488551  6.33556559  1
  Mo  Mo28  1  4.72448449  4.66551377  7.94054135  1
  Mo  Mo29  1  3.15722954  6.35260180  0.00821582  1
  Mo  Mo30  1  4.70821831  7.92705747  1.57173834  1
  Mo  Mo31  1  3.09347643  6.32418466  3.20863002  1
  Mo  Mo32  1  4.66438595  7.93863771  4.75470721  1
  Mo  Mo33  1  3.16815020  6.30802578  6.35191119  1
  Mo  Mo34  1  4.76836924  7.89297427  7.95566635  1
  Mo  Mo35  1  6.35770029  0.02057557  -0.12215993  1
  Mo  Mo36  1  7.92898369  1.56828745  1.61218958  1
  Mo  Mo37  1  6.23713362  0.01835952  3.11916495  1
  Mo  Mo38  1  7.94351097  1.58375464  4.75714286  1
  Mo  Mo39  1  6.30793688  -0.00353441  6.25145230  1
  Mo  Mo40  1  7.85785407  1.58131313  7.88947459  1
  Mo  Mo41  1  6.30119920  3.15872118  0.01966716  1
  Mo  Mo42  1  7.91128680  4.73127677  1.58626848  1
  Mo  Mo43  1  6.25947554  3.12979509  3.18417561  1
  Mo  Mo44  1  7.91669635  4.76295245  4.73070041  1
  Mo  Mo45  1  6.34730397  3.12935678  6.32510764  1
  Mo  Mo46  1  7.92311602  4.75515007  7.94202556  1
  Mo  Mo47  1  6.35356494  6.24837179  0.00613185  1
  Mo  Mo48  1  7.82511016  7.90745324  1.59592590  1
  Mo  Mo49  1  6.27417951  6.27536264  3.11822760  1
  Mo  Mo50  1  7.89531545  7.95468218  4.71367348  1
  Mo  Mo51  1  6.31779756  6.25837015  6.34787933  1
  Mo  Mo52  1  7.92670336  7.88633969  7.88570510  1
