# generated using pymatgen
data_Mo
_symmetry_space_group_name_H-M   'P 1'
_cell_length_a   9.46603805
_cell_length_b   9.46603785
_cell_length_c   9.46603779
_cell_angle_alpha   90.00000282
_cell_angle_beta   89.99999931
_cell_angle_gamma   89.99999840
_symmetry_Int_Tables_number   1
_chemical_formula_structural   Mo
_chemical_formula_sum   Mo53
_cell_volume   848.21259331
_cell_formula_units_Z   53
loop_
 _symmetry_equiv_pos_site_id
 _symmetry_equiv_pos_as_xyz
  1  'x, y, z'
loop_
 _atom_site_type_symbol
 _atom_site_label
 _atom_site_symmetry_multiplicity
 _atom_site_fract_x
 _atom_site_fract_y
 _atom_site_fract_z
 _atom_site_occupancy
  Mo  Mo0  1  1.58166940  1.60368501  1.58656907  1
  Mo  Mo1  1  0.02325883  -0.04851751  3.09673786  1
  Mo  Mo2  1  1.58854747  1.62177798  4.69991487  1
  Mo  Mo3  1  0.03167649  0.03331754  6.28690227  1
  Mo  Mo4  1  1.59982022  1.58224585  7.90060102  1
  Mo  Mo5  1  -0.04250471  3.07654837  0.04273434  1
  Mo  Mo6  1  1.64031559  4.71684589  1.51071170  1
  Mo  Mo7  1  -0.03658269  3.11019055  3.17145226  1
  Mo  Mo8  1  1.53727552  4.67777361  4.78996577  1
  Mo  Mo9  1  -0.00447860  3.10404848  6.39291749  1
  Mo  Mo10  1  1.55478867  4.71609892  7.86327742  1
  Mo  Mo11  1  0.03895791  6.34395376  -0.01425367  1
  Mo  Mo12  1  1.56182774  7.91930100  1.54112051  1
  Mo  Mo13  1  0.03390351  6.25828315  3.15317885  1
  Mo  Mo14  1  1.56684362  7.89818833  4.70085308  1
  Mo  Mo15  1  0.03971953  6.37380794  6.26788626  1
  Mo  Mo16  1  1.56214897  7.92967356  7.89615505  1
  Mo  Mo17  1  3.14588897  0.13093229  -0.04637245  1
  Mo  Mo18  1  4.74490894  1.62839553  1.57871175  1
  Mo  Mo19  1  3.12505800  -0.02872067  3.19306213  1
  Mo  Mo20  1  4.75466129  1.56735217  4.77506044  1
  Mo  Mo21  1  3.08939592  -0.00655528  6.29361696  1
  Mo  Mo22  1  4.75097594  1.57018508  7.82966686  1
  Mo  Mo23  1  3.12517968  3.17011956  0.04509216  1
  Mo  Mo24  1  4.71778717  4.71993500  1.56766065  1
  Mo  Mo25  1  3.16506827  3.12316258  3.24499895  1
  Mo  Mo26  1  4.72476145  4.73338840  4.72106880  1
  Mo  Mo27  1  3.14725402  3.18963644  6.30572487  1
  Mo  Mo28  1  4.75524215  4.69239464  7.89093823  1
  Mo  Mo29  1  3.21265942  6.36269388  0.03247873  1
  Mo  Mo30  1  4.72132609  7.92989028  1.54807832  1
  Mo  Mo31  1  3.12529720  6.33334332  3.19095102  1
  Mo  Mo32  1  4.68908403  7.90290852  4.75028114  1
  Mo  Mo33  1  3.16690983  6.36301943  6.35310386  1
  Mo  Mo34  1  4.78841017  7.88665158  7.95393248  1
  Mo  Mo35  1  6.34159849  -0.00530156  -0.11708201  1
  Mo  Mo36  1  7.87859194  1.56309735  1.60254801  1
  Mo  Mo37  1  6.23863968  -0.02916932  3.13659899  1
  Mo  Mo38  1  7.89820977  1.56712020  4.79030889  1
  Mo  Mo39  1  6.30684706  -0.00442763  6.25286982  1
  Mo  Mo40  1  7.89849602  1.54755558  7.91057840  1
  Mo  Mo41  1  6.29115490  3.17799691  -0.00400453  1
  Mo  Mo42  1  7.90590892  4.69512786  1.59618460  1
  Mo  Mo43  1  6.28185083  3.14121385  3.18648975  1
  Mo  Mo44  1  7.91371804  4.75152088  4.68197916  1
  Mo  Mo45  1  6.26996312  3.16288562  6.29287321  1
  Mo  Mo46  1  7.93518533  4.68618461  7.95706304  1
  Mo  Mo47  1  6.35760282  6.27304354  0.00378155  1
  Mo  Mo48  1  7.84948706  7.91045319  1.59210593  1
  Mo  Mo49  1  6.24718759  6.28620966  3.09727167  1
  Mo  Mo50  1  7.86749453  7.91527580  4.73648877  1
  Mo  Mo51  1  6.34481326  6.29740454  6.28384867  1
  Mo  Mo52  1  7.93205890  7.86370708  7.87116724  1
