# generated using pymatgen
data_Mo
_symmetry_space_group_name_H-M   'P 1'
_cell_length_a   9.46603805
_cell_length_b   9.46603785
_cell_length_c   9.46603779
_cell_angle_alpha   90.00000282
_cell_angle_beta   89.99999931
_cell_angle_gamma   89.99999840
_symmetry_Int_Tables_number   1
_chemical_formula_structural   Mo
_chemical_formula_sum   Mo53
_cell_volume   848.21259331
_cell_formula_units_Z   53
loop_
 _symmetry_equiv_pos_site_id
 _symmetry_equiv_pos_as_xyz
  1  'x, y, z'
loop_
 _atom_site_type_symbol
 _atom_site_label
 _atom_site_symmetry_multiplicity
 _atom_site_fract_x
 _atom_site_fract_y
 _atom_site_fract_z
 _atom_site_occupancy
  Mo  Mo0  1  1.61645721  1.54826025  1.57233662  1
  Mo  Mo1  1  -0.06264089  -0.03684225  3.14875938  1
  Mo  Mo2  1  1.52610219  1.50260397  4.77425170  1
  Mo  Mo3  1  -0.01301831  -0.00401059  6.32940269  1
  Mo  Mo4  1  1.48225970  1.57624074  7.90248425  1
  Mo  Mo5  1  0.01655538  3.12414764  0.05615578  1
  Mo  Mo6  1  1.52977999  4.76800449  1.53783295  1
  Mo  Mo7  1  -0.00314439  3.11147894  3.24543803  1
  Mo  Mo8  1  1.57372643  4.75842527  4.67777621  1
  Mo  Mo9  1  -0.03595180  3.25706865  6.28631781  1
  Mo  Mo10  1  1.55474204  4.71773589  7.94524537  1
  Mo  Mo11  1  0.00405894  6.35453096  0.02030458  1
  Mo  Mo12  1  1.53263346  7.93088759  1.53212292  1
  Mo  Mo13  1  0.02463295  6.26148815  3.17001213  1
  Mo  Mo14  1  1.49752107  7.88090137  4.74225911  1
  Mo  Mo15  1  0.00651573  6.30605047  6.33145634  1
  Mo  Mo16  1  1.60731542  7.83346468  7.90907590  1
  Mo  Mo17  1  3.12880065  -0.03588786  0.06646807  1
  Mo  Mo18  1  4.74204236  1.55434916  1.51526299  1
  Mo  Mo19  1  3.14440171  0.00880739  3.19064490  1
  Mo  Mo20  1  4.71036074  1.58607350  4.66844564  1
  Mo  Mo21  1  3.20117638  0.09301642  6.35094852  1
  Mo  Mo22  1  4.77351833  1.52710859  7.92088984  1
  Mo  Mo23  1  3.16954552  3.20523539  -0.01617950  1
  Mo  Mo24  1  4.79465234  4.75147889  1.51013261  1
  Mo  Mo25  1  3.12694006  3.24735101  3.12118608  1
  Mo  Mo26  1  4.72928628  4.79571119  4.68452471  1
  Mo  Mo27  1  3.14603943  3.21662796  6.28591252  1
  Mo  Mo28  1  4.76032890  4.78627593  7.85292663  1
  Mo  Mo29  1  3.20055571  6.33891728  -0.01156659  1
  Mo  Mo30  1  4.72943350  7.95021679  1.58597983  1
  Mo  Mo31  1  3.19611034  6.28115714  3.13122574  1
  Mo  Mo32  1  4.73352973  7.88228739  4.74052034  1
  Mo  Mo33  1  3.16148533  6.32086788  6.27303203  1
  Mo  Mo34  1  4.73382952  7.88026756  7.90457006  1
  Mo  Mo35  1  6.35699178  -0.02493176  0.07943136  1
  Mo  Mo36  1  7.83006606  1.57214510  1.56373796  1
  Mo  Mo37  1  6.30721597  -0.06061283  3.16952312  1
  Mo  Mo38  1  7.88967998  1.56893708  4.74697576  1
  Mo  Mo39  1  6.32257691  -0.00186951  6.29506580  1
  Mo  Mo40  1  7.97603311  1.46736129  7.95605055  1
  Mo  Mo41  1  6.27096620  3.11023885  -0.03128686  1
  Mo  Mo42  1  7.95917866  4.72513659  1.55625692  1
  Mo  Mo43  1  6.30209177  3.16431199  3.15079054  1
  Mo  Mo44  1  7.87740945  4.70992441  4.77084559  1
  Mo  Mo45  1  6.25910298  3.22350287  6.25958876  1
  Mo  Mo46  1  7.88062083  4.65929721  7.92439273  1
  Mo  Mo47  1  6.32766064  6.34464631  -0.05106572  1
  Mo  Mo48  1  7.95309512  7.85615817  1.57964251  1
  Mo  Mo49  1  6.33523636  6.32217193  3.16905337  1
  Mo  Mo50  1  7.89517398  7.86882788  4.71934345  1
  Mo  Mo51  1  6.33043939  6.32888435  6.24440108  1
  Mo  Mo52  1  7.87274313  7.87142566  7.92694709  1
