# generated using pymatgen
data_Mo
_symmetry_space_group_name_H-M   'P 1'
_cell_length_a   9.46603805
_cell_length_b   9.46603785
_cell_length_c   9.46603779
_cell_angle_alpha   90.00000282
_cell_angle_beta   89.99999931
_cell_angle_gamma   89.99999840
_symmetry_Int_Tables_number   1
_chemical_formula_structural   Mo
_chemical_formula_sum   Mo53
_cell_volume   848.21259331
_cell_formula_units_Z   53
loop_
 _symmetry_equiv_pos_site_id
 _symmetry_equiv_pos_as_xyz
  1  'x, y, z'
loop_
 _atom_site_type_symbol
 _atom_site_label
 _atom_site_symmetry_multiplicity
 _atom_site_fract_x
 _atom_site_fract_y
 _atom_site_fract_z
 _atom_site_occupancy
  Mo  Mo0  1  1.44278372  1.45660766  1.60157950  1
  Mo  Mo1  1  0.02223644  -0.08745371  3.12793665  1
  Mo  Mo2  1  1.46229123  1.54650344  4.70630328  1
  Mo  Mo3  1  -0.03708106  -0.05784190  6.39855576  1
  Mo  Mo4  1  1.65891596  1.66021156  7.83590306  1
  Mo  Mo5  1  -0.06858647  3.11208025  0.04050171  1
  Mo  Mo6  1  1.56469135  4.79864667  1.54840772  1
  Mo  Mo7  1  0.09245444  3.09057114  3.12879500  1
  Mo  Mo8  1  1.53897277  4.71891748  4.77267238  1
  Mo  Mo9  1  0.00659623  3.14127037  6.29092723  1
  Mo  Mo10  1  1.56748255  4.74969806  7.85809260  1
  Mo  Mo11  1  0.02383902  6.36978980  0.11925558  1
  Mo  Mo12  1  1.46206009  7.90797691  1.62363199  1
  Mo  Mo13  1  -0.00258198  6.29818743  3.25799984  1
  Mo  Mo14  1  1.56060419  7.88656771  4.66002276  1
  Mo  Mo15  1  0.19656776  6.30301269  6.36291212  1
  Mo  Mo16  1  1.53347836  7.93448639  7.94045856  1
  Mo  Mo17  1  3.11711549  -0.00479986  0.00328642  1
  Mo  Mo18  1  4.62134566  1.61897769  1.61642307  1
  Mo  Mo19  1  3.25145329  0.00495888  3.18660872  1
  Mo  Mo20  1  4.68098962  1.54232871  4.73906180  1
  Mo  Mo21  1  3.17670929  0.00584015  6.24555183  1
  Mo  Mo22  1  4.75360727  1.68749354  7.88678210  1
  Mo  Mo23  1  3.17150480  3.26747305  -0.08923376  1
  Mo  Mo24  1  4.70889574  4.79586145  1.50846514  1
  Mo  Mo25  1  3.21979093  3.20436150  3.16674852  1
  Mo  Mo26  1  4.67187103  4.67908695  4.64384583  1
  Mo  Mo27  1  3.13789620  3.12900900  6.22774121  1
  Mo  Mo28  1  4.75301713  4.77112117  7.87903136  1
  Mo  Mo29  1  3.26351161  6.27745852  -0.03612435  1
  Mo  Mo30  1  4.71349724  7.98135584  1.61463733  1
  Mo  Mo31  1  3.15156038  6.27981100  3.15775529  1
  Mo  Mo32  1  4.65023899  7.95286991  4.64608896  1
  Mo  Mo33  1  3.17457517  6.23487762  6.31058087  1
  Mo  Mo34  1  4.67586955  7.93464148  7.81635417  1
  Mo  Mo35  1  6.27477018  0.02549498  0.09467890  1
  Mo  Mo36  1  7.92291155  1.48665284  1.45614416  1
  Mo  Mo37  1  6.41449887  -0.00133838  3.24690945  1
  Mo  Mo38  1  7.85699965  1.45131150  4.62543675  1
  Mo  Mo39  1  6.33773470  0.06853559  6.31466322  1
  Mo  Mo40  1  7.92887611  1.57051044  7.96343631  1
  Mo  Mo41  1  6.32458819  3.26957599  0.05065947  1
  Mo  Mo42  1  7.91684037  4.72678854  1.60427236  1
  Mo  Mo43  1  6.41544326  3.07309264  3.12762610  1
  Mo  Mo44  1  7.91238330  4.69205337  4.73061276  1
  Mo  Mo45  1  6.32070534  3.12770303  6.33027744  1
  Mo  Mo46  1  7.89559803  4.75341969  7.90073961  1
  Mo  Mo47  1  6.29130665  6.36813366  -0.00518834  1
  Mo  Mo48  1  7.87280626  7.82623230  1.63233350  1
  Mo  Mo49  1  6.30326646  6.31095985  3.23236354  1
  Mo  Mo50  1  7.88929138  7.80180250  4.70863179  1
  Mo  Mo51  1  6.30375064  6.27855364  6.29517925  1
  Mo  Mo52  1  7.88591938  7.96441261  7.87951369  1
