# generated using pymatgen
data_Mo
_symmetry_space_group_name_H-M   'P 1'
_cell_length_a   9.46602123
_cell_length_b   9.46602137
_cell_length_c   9.46602266
_cell_angle_alpha   90.00002705
_cell_angle_beta   90.00001288
_cell_angle_gamma   90.00006527
_symmetry_Int_Tables_number   1
_chemical_formula_structural   Mo
_chemical_formula_sum   Mo53
_cell_volume   848.20825455
_cell_formula_units_Z   53
loop_
 _symmetry_equiv_pos_site_id
 _symmetry_equiv_pos_as_xyz
  1  'x, y, z'
loop_
 _atom_site_type_symbol
 _atom_site_label
 _atom_site_symmetry_multiplicity
 _atom_site_fract_x
 _atom_site_fract_y
 _atom_site_fract_z
 _atom_site_occupancy
  Mo  Mo0  1  1.51381343  1.54958306  1.51097201  1
  Mo  Mo1  1  -0.03630256  0.01985123  3.09784954  1
  Mo  Mo2  1  1.56428003  1.60871505  4.68075391  1
  Mo  Mo3  1  0.05703639  -0.02278210  6.38027215  1
  Mo  Mo4  1  1.57594430  1.59205526  7.84096194  1
  Mo  Mo5  1  0.02533057  3.06875194  -0.09107553  1
  Mo  Mo6  1  1.63833814  4.75973235  1.52669054  1
  Mo  Mo7  1  -0.01720948  3.19785272  3.06410699  1
  Mo  Mo8  1  1.54633307  4.78758855  4.74341697  1
  Mo  Mo9  1  0.00947030  3.19975273  6.26021263  1
  Mo  Mo10  1  1.54604810  4.72635822  7.89284226  1
  Mo  Mo11  1  0.01050942  6.34999394  -0.03510593  1
  Mo  Mo12  1  1.60667841  7.97562277  1.51496989  1
  Mo  Mo13  1  0.00861758  6.38394405  3.20254453  1
  Mo  Mo14  1  1.56671557  7.93879612  4.70179217  1
  Mo  Mo15  1  -0.06205976  6.23899406  6.35222459  1
  Mo  Mo16  1  1.58803775  7.88614003  7.86844548  1
  Mo  Mo17  1  3.11617663  -0.02726189  0.01614741  1
  Mo  Mo18  1  4.69881044  1.50226007  1.59163401  1
  Mo  Mo19  1  3.16051841  0.03064695  3.10064219  1
  Mo  Mo20  1  4.66788666  1.52867025  4.70406252  1
  Mo  Mo21  1  3.19176372  0.01671137  6.29656718  1
  Mo  Mo22  1  4.78819941  1.59308872  7.97460175  1
  Mo  Mo23  1  3.19486947  3.17183236  0.08354167  1
  Mo  Mo24  1  4.83481751  4.72225943  1.53417787  1
  Mo  Mo25  1  3.17513617  3.14283790  3.20777601  1
  Mo  Mo26  1  4.71768913  4.69931554  4.75602905  1
  Mo  Mo27  1  3.13710692  3.13199094  6.28606988  1
  Mo  Mo28  1  4.68461748  4.72996696  7.93881581  1
  Mo  Mo29  1  3.13435970  6.27028730  0.01817186  1
  Mo  Mo30  1  4.73122257  7.86791478  1.53400567  1
  Mo  Mo31  1  3.11791546  6.31879340  3.21201718  1
  Mo  Mo32  1  4.72968192  7.92774246  4.69324256  1
  Mo  Mo33  1  3.18347929  6.27458611  6.32972597  1
  Mo  Mo34  1  4.75463148  7.93887660  7.88348008  1
  Mo  Mo35  1  6.39120643  0.01732410  0.08053940  1
  Mo  Mo36  1  7.86866965  1.57788936  1.60514200  1
  Mo  Mo37  1  6.23501745  -0.04240525  3.16828627  1
  Mo  Mo38  1  7.86884059  1.54840790  4.75181816  1
  Mo  Mo39  1  6.32729817  -0.08568147  6.29819604  1
  Mo  Mo40  1  7.87995286  1.50019262  7.93250164  1
  Mo  Mo41  1  6.30740672  3.20217441  -0.05778077  1
  Mo  Mo42  1  7.90130348  4.71535177  1.56227592  1
  Mo  Mo43  1  6.29568151  3.21650910  3.20288850  1
  Mo  Mo44  1  7.88198136  4.71655224  4.72727136  1
  Mo  Mo45  1  6.35785396  3.17695518  6.29716375  1
  Mo  Mo46  1  7.86423079  4.71968028  7.90827083  1
  Mo  Mo47  1  6.24810979  6.35025570  0.00265125  1
  Mo  Mo48  1  7.88455970  7.86294591  1.57948013  1
  Mo  Mo49  1  6.26800772  6.34024007  3.18175480  1
  Mo  Mo50  1  7.96365197  7.87264842  4.78179368  1
  Mo  Mo51  1  6.33915936  6.29735135  6.35621705  1
  Mo  Mo52  1  7.94193744  7.89744847  7.93438318  1
