# generated using pymatgen
data_Mo
_symmetry_space_group_name_H-M   'P 1'
_cell_length_a   9.46602123
_cell_length_b   9.46602137
_cell_length_c   9.46602266
_cell_angle_alpha   90.00002705
_cell_angle_beta   90.00001288
_cell_angle_gamma   90.00006527
_symmetry_Int_Tables_number   1
_chemical_formula_structural   Mo
_chemical_formula_sum   Mo53
_cell_volume   848.20825455
_cell_formula_units_Z   53
loop_
 _symmetry_equiv_pos_site_id
 _symmetry_equiv_pos_as_xyz
  1  'x, y, z'
loop_
 _atom_site_type_symbol
 _atom_site_label
 _atom_site_symmetry_multiplicity
 _atom_site_fract_x
 _atom_site_fract_y
 _atom_site_fract_z
 _atom_site_occupancy
  Mo  Mo0  1  1.50261711  1.49749739  1.51076564  1
  Mo  Mo1  1  0.00683434  -0.00616910  3.21155744  1
  Mo  Mo2  1  1.49191812  1.60381658  4.75069620  1
  Mo  Mo3  1  -0.00749809  0.00288018  6.32597259  1
  Mo  Mo4  1  1.54629145  1.53451901  7.94478730  1
  Mo  Mo5  1  0.02378943  3.17156489  0.04601074  1
  Mo  Mo6  1  1.59535344  4.72039894  1.52988729  1
  Mo  Mo7  1  0.06526940  3.13578224  3.17961916  1
  Mo  Mo8  1  1.54474089  4.77096055  4.66142834  1
  Mo  Mo9  1  0.02456177  3.14694001  6.33614680  1
  Mo  Mo10  1  1.54214928  4.78511461  7.84999014  1
  Mo  Mo11  1  -0.04700862  6.30951742  0.08385180  1
  Mo  Mo12  1  1.57373773  7.85201118  1.53741573  1
  Mo  Mo13  1  -0.04317141  6.27213524  3.13583402  1
  Mo  Mo14  1  1.60165244  7.97746134  4.75510685  1
  Mo  Mo15  1  -0.03040335  6.33278199  6.31535066  1
  Mo  Mo16  1  1.54153895  7.95866503  7.88484824  1
  Mo  Mo17  1  3.15955490  -0.01144039  -0.00040982  1
  Mo  Mo18  1  4.70506170  1.58458310  1.53055744  1
  Mo  Mo19  1  3.12108557  -0.03253187  3.21758117  1
  Mo  Mo20  1  4.72630415  1.58588004  4.74840894  1
  Mo  Mo21  1  3.22021499  -0.02024116  6.37775594  1
  Mo  Mo22  1  4.70014005  1.58112174  7.90215727  1
  Mo  Mo23  1  3.13478448  3.11240367  -0.03726288  1
  Mo  Mo24  1  4.71403852  4.70101112  1.60512809  1
  Mo  Mo25  1  3.15592011  3.18679007  3.13425072  1
  Mo  Mo26  1  4.73884038  4.74693501  4.74902199  1
  Mo  Mo27  1  3.14801579  3.17011534  6.35711916  1
  Mo  Mo28  1  4.73737845  4.77512714  7.82676835  1
  Mo  Mo29  1  3.14387189  6.28850435  -0.04701619  1
  Mo  Mo30  1  4.71512849  7.84644057  1.50382853  1
  Mo  Mo31  1  3.18675664  6.27886768  3.12949708  1
  Mo  Mo32  1  4.76210891  7.87411031  4.71009862  1
  Mo  Mo33  1  3.15267340  6.36656885  6.27399742  1
  Mo  Mo34  1  4.78498727  7.94902072  7.83088820  1
  Mo  Mo35  1  6.28549379  0.03995384  -0.03085579  1
  Mo  Mo36  1  7.92968606  1.50426436  1.57860635  1
  Mo  Mo37  1  6.30052763  0.04388997  3.15547477  1
  Mo  Mo38  1  7.88722275  1.50710589  4.71557533  1
  Mo  Mo39  1  6.37039154  0.05037513  6.27881090  1
  Mo  Mo40  1  7.88373884  1.60410935  7.90442106  1
  Mo  Mo41  1  6.32538233  3.19645982  0.06155052  1
  Mo  Mo42  1  7.98815572  4.68937369  1.59416661  1
  Mo  Mo43  1  6.30612030  3.09190307  3.15737660  1
  Mo  Mo44  1  7.89725723  4.68656127  4.72959284  1
  Mo  Mo45  1  6.26481491  3.11174774  6.34306209  1
  Mo  Mo46  1  7.88994501  4.75721807  7.99749604  1
  Mo  Mo47  1  6.29789540  6.35674713  0.03035209  1
  Mo  Mo48  1  7.94253124  7.89600133  1.53796695  1
  Mo  Mo49  1  6.32264974  6.26094112  3.18575777  1
  Mo  Mo50  1  7.92309014  7.86454151  4.65173295  1
  Mo  Mo51  1  6.29278051  6.30539698  6.28326938  1
  Mo  Mo52  1  7.93841090  7.96957536  7.93944053  1
