# generated using pymatgen
data_Mo
_symmetry_space_group_name_H-M   'P 1'
_cell_length_a   9.46602123
_cell_length_b   9.46602137
_cell_length_c   9.46602266
_cell_angle_alpha   90.00002705
_cell_angle_beta   90.00001288
_cell_angle_gamma   90.00006527
_symmetry_Int_Tables_number   1
_chemical_formula_structural   Mo
_chemical_formula_sum   Mo53
_cell_volume   848.20825455
_cell_formula_units_Z   53
loop_
 _symmetry_equiv_pos_site_id
 _symmetry_equiv_pos_as_xyz
  1  'x, y, z'
loop_
 _atom_site_type_symbol
 _atom_site_label
 _atom_site_symmetry_multiplicity
 _atom_site_fract_x
 _atom_site_fract_y
 _atom_site_fract_z
 _atom_site_occupancy
  Mo  Mo0  1  1.60611099  1.57327449  1.61196147  1
  Mo  Mo1  1  0.00365949  -0.04067898  3.07335431  1
  Mo  Mo2  1  1.61406120  1.51643964  4.77735512  1
  Mo  Mo3  1  0.00652944  0.01493832  6.32790199  1
  Mo  Mo4  1  1.49804893  1.56710330  7.93942303  1
  Mo  Mo5  1  -0.02934119  3.10718036  -0.01884543  1
  Mo  Mo6  1  1.57207186  4.71023952  1.50711591  1
  Mo  Mo7  1  -0.04354198  3.14972827  3.14232367  1
  Mo  Mo8  1  1.58191463  4.69141933  4.75852666  1
  Mo  Mo9  1  0.00320620  3.18185201  6.29717747  1
  Mo  Mo10  1  1.52222856  4.70841521  7.88998391  1
  Mo  Mo11  1  0.01500457  6.36642880  -0.05212047  1
  Mo  Mo12  1  1.60028122  7.90038578  1.58997289  1
  Mo  Mo13  1  0.03766149  6.29263086  3.21363796  1
  Mo  Mo14  1  1.54334629  7.85567616  4.74193608  1
  Mo  Mo15  1  0.00975908  6.27340692  6.31409976  1
  Mo  Mo16  1  1.52935104  7.92723729  7.91011565  1
  Mo  Mo17  1  3.06271712  -0.03887971  0.01212621  1
  Mo  Mo18  1  4.75174468  1.49552431  1.57747592  1
  Mo  Mo19  1  3.18449339  0.00299703  3.17228311  1
  Mo  Mo20  1  4.75593563  1.57090453  4.74842995  1
  Mo  Mo21  1  3.10384263  0.02788724  6.33913218  1
  Mo  Mo22  1  4.72190621  1.59584880  7.94419172  1
  Mo  Mo23  1  3.13307807  3.16414478  0.00913690  1
  Mo  Mo24  1  4.78549310  4.72545970  1.54377752  1
  Mo  Mo25  1  3.15938291  3.12746340  3.16124135  1
  Mo  Mo26  1  4.73788270  4.74410128  4.68148329  1
  Mo  Mo27  1  3.14970430  3.19722408  6.26684655  1
  Mo  Mo28  1  4.67680055  4.74020775  7.90557251  1
  Mo  Mo29  1  3.16432033  6.31025019  -0.01237089  1
  Mo  Mo30  1  4.78152534  7.92088097  1.57262055  1
  Mo  Mo31  1  3.16822793  6.31829082  3.16249242  1
  Mo  Mo32  1  4.73993306  7.91468404  4.73920642  1
  Mo  Mo33  1  3.22198877  6.28825723  6.30873265  1
  Mo  Mo34  1  4.64642820  7.91403796  7.93599103  1
  Mo  Mo35  1  6.41301700  -0.01215445  -0.02373533  1
  Mo  Mo36  1  7.93317628  1.53590654  1.53781238  1
  Mo  Mo37  1  6.33112434  -0.04676420  3.08674630  1
  Mo  Mo38  1  7.91107899  1.56550261  4.73626899  1
  Mo  Mo39  1  6.26950510  -0.02433469  6.23232681  1
  Mo  Mo40  1  7.85490633  1.60391349  7.95645576  1
  Mo  Mo41  1  6.27678593  3.13101351  -0.05635970  1
  Mo  Mo42  1  7.89460378  4.74914135  1.63886371  1
  Mo  Mo43  1  6.29715728  3.19725930  3.17267321  1
  Mo  Mo44  1  7.88046949  4.75071659  4.77144762  1
  Mo  Mo45  1  6.31763583  3.22896210  6.27828648  1
  Mo  Mo46  1  7.88378594  4.77362615  7.95733617  1
  Mo  Mo47  1  6.37547483  6.30538378  -0.01641854  1
  Mo  Mo48  1  7.93049799  7.93504361  1.52830777  1
  Mo  Mo49  1  6.30839065  6.30976789  3.13006380  1
  Mo  Mo50  1  7.90087685  7.93595628  4.76232659  1
  Mo  Mo51  1  6.32048067  6.32865787  6.30692394  1
  Mo  Mo52  1  7.87060860  7.90274996  7.89382059  1
