# generated using pymatgen
data_Mo
_symmetry_space_group_name_H-M   'P 1'
_cell_length_a   9.46604618
_cell_length_b   9.46604503
_cell_length_c   9.46605243
_cell_angle_alpha   89.99993799
_cell_angle_beta   90.00002894
_cell_angle_gamma   90.00006502
_symmetry_Int_Tables_number   1
_chemical_formula_structural   Mo
_chemical_formula_sum   Mo53
_cell_volume   848.21527775
_cell_formula_units_Z   53
loop_
 _symmetry_equiv_pos_site_id
 _symmetry_equiv_pos_as_xyz
  1  'x, y, z'
loop_
 _atom_site_type_symbol
 _atom_site_label
 _atom_site_symmetry_multiplicity
 _atom_site_fract_x
 _atom_site_fract_y
 _atom_site_fract_z
 _atom_site_occupancy
  Mo  Mo0  1  1.52431647  1.55463061  1.60939467  1
  Mo  Mo1  1  0.01210688  0.02402835  3.15333860  1
  Mo  Mo2  1  1.55631748  1.52175149  4.75877816  1
  Mo  Mo3  1  -0.02038633  -0.01989662  6.39249226  1
  Mo  Mo4  1  1.55767593  1.56364180  7.86776937  1
  Mo  Mo5  1  -0.02418041  3.11025224  -0.03811925  1
  Mo  Mo6  1  1.56946028  4.73766288  1.58478807  1
  Mo  Mo7  1  0.00739072  3.10746393  3.13024054  1
  Mo  Mo8  1  1.59280132  4.69302861  4.73583304  1
  Mo  Mo9  1  -0.02071654  3.14631428  6.33176611  1
  Mo  Mo10  1  1.60249209  4.73633628  7.86503874  1
  Mo  Mo11  1  0.02514138  6.34066476  -0.00032136  1
  Mo  Mo12  1  1.57444022  7.94024377  1.55705321  1
  Mo  Mo13  1  -0.00795158  6.29626706  3.15855233  1
  Mo  Mo14  1  1.56060543  7.86763798  4.70847366  1
  Mo  Mo15  1  -0.00178412  6.32416881  6.35283502  1
  Mo  Mo16  1  1.59672942  7.91450162  7.94560214  1
  Mo  Mo17  1  3.15080826  0.00586963  -0.02168941  1
  Mo  Mo18  1  4.72206313  1.58411781  1.56478036  1
  Mo  Mo19  1  3.15202188  0.00869822  3.16839614  1
  Mo  Mo20  1  4.72675462  1.59185475  4.75067246  1
  Mo  Mo21  1  3.16664195  -0.01823387  6.31353270  1
  Mo  Mo22  1  4.69037048  1.56036305  7.85230602  1
  Mo  Mo23  1  3.15214917  3.15213820  0.01777500  1
  Mo  Mo24  1  4.71454078  4.74148352  1.56836703  1
  Mo  Mo25  1  3.17025818  3.14226233  3.13551115  1
  Mo  Mo26  1  4.76443327  4.74899051  4.75565211  1
  Mo  Mo27  1  3.15484730  3.13631999  6.30521924  1
  Mo  Mo28  1  4.77166230  4.76968365  7.88693360  1
  Mo  Mo29  1  3.16768099  6.32697303  -0.00641807  1
  Mo  Mo30  1  4.70108858  7.91215951  1.53262923  1
  Mo  Mo31  1  3.11400004  6.33028268  3.15023580  1
  Mo  Mo32  1  4.73782960  7.89771057  4.72093457  1
  Mo  Mo33  1  3.15320489  6.29714951  6.31655208  1
  Mo  Mo34  1  4.74653729  7.86017966  7.90055748  1
  Mo  Mo35  1  6.36746038  0.03910345  0.00175264  1
  Mo  Mo36  1  7.91506586  1.58146881  1.54452135  1
  Mo  Mo37  1  6.37510932  -0.00788336  3.14951444  1
  Mo  Mo38  1  7.87720612  1.60437316  4.72948680  1
  Mo  Mo39  1  6.33084841  -0.01307517  6.28613271  1
  Mo  Mo40  1  7.86525349  1.53130341  7.92497322  1
  Mo  Mo41  1  6.28735674  3.14508046  -0.00042556  1
  Mo  Mo42  1  7.86605116  4.74588990  1.56063629  1
  Mo  Mo43  1  6.30179062  3.13800724  3.15780152  1
  Mo  Mo44  1  7.89894815  4.73464901  4.71854660  1
  Mo  Mo45  1  6.29891708  3.15867204  6.34528742  1
  Mo  Mo46  1  7.91623877  4.77029639  7.90763079  1
  Mo  Mo47  1  6.31819443  6.36074394  0.00797287  1
  Mo  Mo48  1  7.88975887  7.86599198  1.54708490  1
  Mo  Mo49  1  6.32206934  6.30040382  3.15886404  1
  Mo  Mo50  1  7.87468983  7.88831550  4.71167255  1
  Mo  Mo51  1  6.30115162  6.32340469  6.31756302  1
  Mo  Mo52  1  7.91840313  7.91256191  7.89176272  1
