# generated using pymatgen
data_Mo
_symmetry_space_group_name_H-M   'P 1'
_cell_length_a   9.46603805
_cell_length_b   9.46603785
_cell_length_c   9.46603779
_cell_angle_alpha   90.00000282
_cell_angle_beta   89.99999931
_cell_angle_gamma   89.99999840
_symmetry_Int_Tables_number   1
_chemical_formula_structural   Mo
_chemical_formula_sum   Mo53
_cell_volume   848.21259331
_cell_formula_units_Z   53
loop_
 _symmetry_equiv_pos_site_id
 _symmetry_equiv_pos_as_xyz
  1  'x, y, z'
loop_
 _atom_site_type_symbol
 _atom_site_label
 _atom_site_symmetry_multiplicity
 _atom_site_fract_x
 _atom_site_fract_y
 _atom_site_fract_z
 _atom_site_occupancy
  Mo  Mo0  1  1.59221475  1.50555747  1.51442030  1
  Mo  Mo1  1  -0.04011918  -0.02694669  3.05731347  1
  Mo  Mo2  1  1.57248019  1.55330632  4.64900872  1
  Mo  Mo3  1  0.05607515  0.01810537  6.42958338  1
  Mo  Mo4  1  1.49454876  1.68667663  7.95981184  1
  Mo  Mo5  1  0.05537857  3.14796540  0.01926812  1
  Mo  Mo6  1  1.61890102  4.67734026  1.78582025  1
  Mo  Mo7  1  -0.13704019  3.16162172  3.14416776  1
  Mo  Mo8  1  1.65690104  4.69521782  4.73095161  1
  Mo  Mo9  1  -0.07064707  3.13347994  6.21270101  1
  Mo  Mo10  1  1.53067304  4.78225120  8.02057089  1
  Mo  Mo11  1  0.03893856  6.25949548  -0.02822269  1
  Mo  Mo12  1  1.68189337  7.91752311  1.48835900  1
  Mo  Mo13  1  0.06699800  6.30557956  3.14551288  1
  Mo  Mo14  1  1.53875329  7.92461035  4.77094471  1
  Mo  Mo15  1  -0.10714252  6.26473501  6.33860748  1
  Mo  Mo16  1  1.63267950  7.89357863  7.92604453  1
  Mo  Mo17  1  3.12604584  -0.01921940  0.00797384  1
  Mo  Mo18  1  4.77302103  1.53665049  1.54364644  1
  Mo  Mo19  1  3.05067281  -0.02151415  3.15222081  1
  Mo  Mo20  1  4.64914581  1.59546249  4.75323743  1
  Mo  Mo21  1  3.10221614  -0.00755402  6.40920258  1
  Mo  Mo22  1  4.67803599  1.53604628  8.01531674  1
  Mo  Mo23  1  3.12553476  3.11651722  0.04060762  1
  Mo  Mo24  1  4.76004353  4.72677306  1.58630717  1
  Mo  Mo25  1  3.09593764  3.06161718  3.09370166  1
  Mo  Mo26  1  4.79731684  4.75246551  4.77500807  1
  Mo  Mo27  1  3.10548089  3.18650503  6.34205642  1
  Mo  Mo28  1  4.72561563  4.72131950  7.81123892  1
  Mo  Mo29  1  3.15962111  6.30200421  -0.11004083  1
  Mo  Mo30  1  4.68171163  7.90509896  1.51065718  1
  Mo  Mo31  1  3.26827741  6.31583132  3.09615971  1
  Mo  Mo32  1  4.70777733  7.88551663  4.80107780  1
  Mo  Mo33  1  3.20728778  6.40000596  6.23548111  1
  Mo  Mo34  1  4.78825929  8.01093663  7.90219826  1
  Mo  Mo35  1  6.42562690  0.04885535  -0.08545691  1
  Mo  Mo36  1  7.86994067  1.55727507  1.59489175  1
  Mo  Mo37  1  6.22561703  0.01189654  3.16211496  1
  Mo  Mo38  1  7.93220768  1.52401305  4.76022686  1
  Mo  Mo39  1  6.35823598  -0.07709532  6.34043674  1
  Mo  Mo40  1  7.81958842  1.66183168  7.92507104  1
  Mo  Mo41  1  6.27605879  3.22573629  -0.05732660  1
  Mo  Mo42  1  7.92135787  4.71295140  1.53330559  1
  Mo  Mo43  1  6.22124888  3.25792037  3.14605992  1
  Mo  Mo44  1  7.91359361  4.68547913  4.72484867  1
  Mo  Mo45  1  6.21069688  3.16549514  6.21624896  1
  Mo  Mo46  1  7.93043184  4.69135120  7.91241169  1
  Mo  Mo47  1  6.30981852  6.36355576  -0.04881754  1
  Mo  Mo48  1  7.87701294  7.85393855  1.52295423  1
  Mo  Mo49  1  6.37557959  6.28531352  3.13494191  1
  Mo  Mo50  1  7.93275246  7.92692769  4.81472605  1
  Mo  Mo51  1  6.40889455  6.34205226  6.25084501  1
  Mo  Mo52  1  7.99371395  7.84379520  8.00745373  1
