# generated using pymatgen
data_Mo
_symmetry_space_group_name_H-M   'P 1'
_cell_length_a   9.46604618
_cell_length_b   9.46604503
_cell_length_c   9.46605243
_cell_angle_alpha   89.99993799
_cell_angle_beta   90.00002894
_cell_angle_gamma   90.00006502
_symmetry_Int_Tables_number   1
_chemical_formula_structural   Mo
_chemical_formula_sum   Mo53
_cell_volume   848.21527775
_cell_formula_units_Z   53
loop_
 _symmetry_equiv_pos_site_id
 _symmetry_equiv_pos_as_xyz
  1  'x, y, z'
loop_
 _atom_site_type_symbol
 _atom_site_label
 _atom_site_symmetry_multiplicity
 _atom_site_fract_x
 _atom_site_fract_y
 _atom_site_fract_z
 _atom_site_occupancy
  Mo  Mo0  1  1.48242688  1.55168324  1.65037644  1
  Mo  Mo1  1  0.01928300  0.02265666  3.19071665  1
  Mo  Mo2  1  1.51111591  1.43814333  4.79472714  1
  Mo  Mo3  1  -0.04554737  -0.04563855  6.45183026  1
  Mo  Mo4  1  1.56426083  1.56299303  7.82418984  1
  Mo  Mo5  1  -0.05214976  3.08944206  -0.07793627  1
  Mo  Mo6  1  1.52674796  4.74598104  1.56252552  1
  Mo  Mo7  1  0.00920492  3.07311052  3.12576779  1
  Mo  Mo8  1  1.59801327  4.64469327  4.72740097  1
  Mo  Mo9  1  -0.06326294  3.15024063  6.33441454  1
  Mo  Mo10  1  1.63633921  4.74702429  7.86721778  1
  Mo  Mo11  1  0.06697103  6.35094545  0.01047296  1
  Mo  Mo12  1  1.57878563  7.98664174  1.54931753  1
  Mo  Mo13  1  -0.01060465  6.24385878  3.18276737  1
  Mo  Mo14  1  1.52323579  7.84696693  4.70357969  1
  Mo  Mo15  1  0.00113562  6.32575913  6.37861805  1
  Mo  Mo16  1  1.64417538  7.92050909  7.99308179  1
  Mo  Mo17  1  3.17169269  0.03643963  -0.03900338  1
  Mo  Mo18  1  4.70316457  1.58210872  1.53920454  1
  Mo  Mo19  1  3.19462402  0.02337573  3.19837416  1
  Mo  Mo20  1  4.72627121  1.58961597  4.75283760  1
  Mo  Mo21  1  3.18957814  -0.06321898  6.29440483  1
  Mo  Mo22  1  4.65238226  1.51643927  7.83964856  1
  Mo  Mo23  1  3.15377394  3.16394913  0.02600014  1
  Mo  Mo24  1  4.68283742  4.76607782  1.56473840  1
  Mo  Mo25  1  3.20312903  3.13724991  3.14605753  1
  Mo  Mo26  1  4.79010963  4.77002199  4.77081533  1
  Mo  Mo27  1  3.16299986  3.12513154  6.28755366  1
  Mo  Mo28  1  4.81282987  4.80321139  7.90544823  1
  Mo  Mo29  1  3.19210382  6.32846185  -0.00910871  1
  Mo  Mo30  1  4.65898370  7.97285152  1.47299639  1
  Mo  Mo31  1  3.09330851  6.33401700  3.16171467  1
  Mo  Mo32  1  4.72831207  7.90464996  4.68594188  1
  Mo  Mo33  1  3.17045016  6.26752907  6.29759061  1
  Mo  Mo34  1  4.76001965  7.85807502  7.90105979  1
  Mo  Mo35  1  6.39210181  0.06825199  0.00781411  1
  Mo  Mo36  1  7.91132059  1.61328687  1.51215106  1
  Mo  Mo37  1  6.43889474  0.00000175  3.14956874  1
  Mo  Mo38  1  7.87983519  1.62760613  4.73154851  1
  Mo  Mo39  1  6.32449604  -0.02312701  6.24520368  1
  Mo  Mo40  1  7.81604139  1.51065795  7.93254182  1
  Mo  Mo41  1  6.24694431  3.15737392  0.00990453  1
  Mo  Mo42  1  7.84681750  4.75081116  1.50882311  1
  Mo  Mo43  1  6.28031669  3.14155332  3.18073584  1
  Mo  Mo44  1  7.91892088  4.73530142  4.70732184  1
  Mo  Mo45  1  6.27779993  3.18283881  6.37449089  1
  Mo  Mo46  1  7.97712596  4.81234918  7.94585703  1
  Mo  Mo47  1  6.32289651  6.38681642  0.02434936  1
  Mo  Mo48  1  7.87113974  7.82375060  1.53808199  1
  Mo  Mo49  1  6.30744659  6.27581898  3.16527384  1
  Mo  Mo50  1  7.89650755  7.90359921  4.69095562  1
  Mo  Mo51  1  6.29877230  6.33187871  6.31004890  1
  Mo  Mo52  1  7.94178567  7.91624112  7.88622805  1
