# generated using pymatgen
data_Mo
_symmetry_space_group_name_H-M   'P 1'
_cell_length_a   9.46604618
_cell_length_b   9.46604503
_cell_length_c   9.46605243
_cell_angle_alpha   89.99993799
_cell_angle_beta   90.00002894
_cell_angle_gamma   90.00006502
_symmetry_Int_Tables_number   1
_chemical_formula_structural   Mo
_chemical_formula_sum   Mo53
_cell_volume   848.21527775
_cell_formula_units_Z   53
loop_
 _symmetry_equiv_pos_site_id
 _symmetry_equiv_pos_as_xyz
  1  'x, y, z'
loop_
 _atom_site_type_symbol
 _atom_site_label
 _atom_site_symmetry_multiplicity
 _atom_site_fract_x
 _atom_site_fract_y
 _atom_site_fract_z
 _atom_site_occupancy
  Mo  Mo0  1  1.50835750  1.56426879  1.59418553  1
  Mo  Mo1  1  -0.00154001  -0.04988755  3.19456411  1
  Mo  Mo2  1  1.50689679  1.43859787  4.79211573  1
  Mo  Mo3  1  -0.03434359  -0.03492142  6.40271969  1
  Mo  Mo4  1  1.58324239  1.54692598  7.84563260  1
  Mo  Mo5  1  -0.03222360  3.10040538  -0.04788160  1
  Mo  Mo6  1  1.48926129  4.73981519  1.51743772  1
  Mo  Mo7  1  -0.01611792  3.11700683  3.16107659  1
  Mo  Mo8  1  1.56207770  4.65837041  4.71281066  1
  Mo  Mo9  1  -0.07945258  3.16354051  6.30829300  1
  Mo  Mo10  1  1.65200360  4.75402914  7.91567746  1
  Mo  Mo11  1  0.07564187  6.36203705  0.03632991  1
  Mo  Mo12  1  1.55343167  7.98092190  1.55103550  1
  Mo  Mo13  1  0.00583679  6.20354624  3.19494282  1
  Mo  Mo14  1  1.51992077  7.83620301  4.76425898  1
  Mo  Mo15  1  0.02382799  6.31155068  6.33178883  1
  Mo  Mo16  1  1.62900048  7.91061461  7.96830446  1
  Mo  Mo17  1  3.14109117  0.07827478  -0.01466773  1
  Mo  Mo18  1  4.70261776  1.59498368  1.53145847  1
  Mo  Mo19  1  3.24152154  0.02650921  3.18967407  1
  Mo  Mo20  1  4.74743249  1.54938409  4.71886741  1
  Mo  Mo21  1  3.17676648  -0.09494301  6.26817445  1
  Mo  Mo22  1  4.70444076  1.50488816  7.89400436  1
  Mo  Mo23  1  3.14426579  3.17964194  0.00149066  1
  Mo  Mo24  1  4.66756271  4.78634276  1.57648174  1
  Mo  Mo25  1  3.19652902  3.14432415  3.20189728  1
  Mo  Mo26  1  4.74995506  4.75711011  4.74567688  1
  Mo  Mo27  1  3.16361871  3.13417400  6.28898657  1
  Mo  Mo28  1  4.78262668  4.76739710  7.94238787  1
  Mo  Mo29  1  3.18873671  6.32342276  0.00566122  1
  Mo  Mo30  1  4.67128115  8.00563023  1.49676675  1
  Mo  Mo31  1  3.13773394  6.30652357  3.17558932  1
  Mo  Mo32  1  4.71002389  7.89176528  4.65163627  1
  Mo  Mo33  1  3.19247203  6.26198030  6.26458556  1
  Mo  Mo34  1  4.74519170  7.91583205  7.85266493  1
  Mo  Mo35  1  6.35329611  0.00406592  0.01631310  1
  Mo  Mo36  1  7.87464347  1.62195953  1.49592758  1
  Mo  Mo37  1  6.40957169  0.03106186  3.14643646  1
  Mo  Mo38  1  7.90219921  1.61428859  4.74126639  1
  Mo  Mo39  1  6.28281476  -0.01176211  6.25531160  1
  Mo  Mo40  1  7.83230884  1.56056475  7.88527478  1
  Mo  Mo41  1  6.25755248  3.17873117  0.03817294  1
  Mo  Mo42  1  7.85014040  4.72336843  1.46939670  1
  Mo  Mo43  1  6.28173285  3.18375937  3.20017478  1
  Mo  Mo44  1  7.91998326  4.73737883  4.72797037  1
  Mo  Mo45  1  6.28221526  3.20452695  6.35286692  1
  Mo  Mo46  1  7.99874240  4.79082121  7.94458126  1
  Mo  Mo47  1  6.33460033  6.31688218  0.03198680  1
  Mo  Mo48  1  7.88254335  7.86074303  1.56173584  1
  Mo  Mo49  1  6.28150557  6.28020202  3.15079551  1
  Mo  Mo50  1  7.94824628  7.91820044  4.71596096  1
  Mo  Mo51  1  6.34397297  6.33397147  6.29425578  1
  Mo  Mo52  1  7.94010661  7.90097823  7.92318533  1
