# generated using pymatgen
data_Mo
_symmetry_space_group_name_H-M   'P 1'
_cell_length_a   9.46604618
_cell_length_b   9.46604503
_cell_length_c   9.46605243
_cell_angle_alpha   89.99993799
_cell_angle_beta   90.00002894
_cell_angle_gamma   90.00006502
_symmetry_Int_Tables_number   1
_chemical_formula_structural   Mo
_chemical_formula_sum   Mo53
_cell_volume   848.21527775
_cell_formula_units_Z   53
loop_
 _symmetry_equiv_pos_site_id
 _symmetry_equiv_pos_as_xyz
  1  'x, y, z'
loop_
 _atom_site_type_symbol
 _atom_site_label
 _atom_site_symmetry_multiplicity
 _atom_site_fract_x
 _atom_site_fract_y
 _atom_site_fract_z
 _atom_site_occupancy
  Mo  Mo0  1  1.57268491  1.58032287  1.49499789  1
  Mo  Mo1  1  0.02197377  -0.02983134  3.10356721  1
  Mo  Mo2  1  1.62415249  1.54160246  4.67808685  1
  Mo  Mo3  1  -0.00673821  0.04867978  6.26149367  1
  Mo  Mo4  1  1.58094401  1.53450043  7.95026885  1
  Mo  Mo5  1  0.03583541  3.13180948  0.02324806  1
  Mo  Mo6  1  1.53723959  4.70727099  1.57127515  1
  Mo  Mo7  1  -0.04716926  3.15557467  3.18398696  1
  Mo  Mo8  1  1.54579416  4.71520093  4.76384006  1
  Mo  Mo9  1  0.02968511  3.18818840  6.27871625  1
  Mo  Mo10  1  1.59314665  4.73380893  7.95791057  1
  Mo  Mo11  1  -0.02791800  6.34050473  -0.00529704  1
  Mo  Mo12  1  1.53361810  7.86920471  1.60346741  1
  Mo  Mo13  1  0.02529547  6.30019131  3.13520930  1
  Mo  Mo14  1  1.62275608  7.82558060  4.76141749  1
  Mo  Mo15  1  0.03720092  6.29660734  6.27422693  1
  Mo  Mo16  1  1.49137732  7.91130273  7.89013640  1
  Mo  Mo17  1  3.06403479  -0.01248434  0.00384335  1
  Mo  Mo18  1  4.74524278  1.65496620  1.54742354  1
  Mo  Mo19  1  3.11992976  -0.01353608  3.08539226  1
  Mo  Mo20  1  4.76111915  1.56792285  4.73600645  1
  Mo  Mo21  1  3.10017449  0.03488846  6.23898759  1
  Mo  Mo22  1  4.81570536  1.57631263  7.94915366  1
  Mo  Mo23  1  3.16102037  3.19739127  0.01643598  1
  Mo  Mo24  1  4.70535181  4.74296021  1.57381977  1
  Mo  Mo25  1  3.07010932  3.16642275  3.19346928  1
  Mo  Mo26  1  4.68445229  4.68889135  4.73794185  1
  Mo  Mo27  1  3.14631834  3.14296734  6.32663849  1
  Mo  Mo28  1  4.71615675  4.68596872  7.90211719  1
  Mo  Mo29  1  3.17095741  6.39809081  0.00374747  1
  Mo  Mo30  1  4.75033666  7.91724141  1.59769568  1
  Mo  Mo31  1  3.16561707  6.28754868  3.15499945  1
  Mo  Mo32  1  4.78385044  7.88020209  4.73166799  1
  Mo  Mo33  1  3.19227982  6.29978376  6.30729711  1
  Mo  Mo34  1  4.72130220  7.89662602  7.89910164  1
  Mo  Mo35  1  6.30922402  -0.07453521  -0.01787362  1
  Mo  Mo36  1  7.88149694  1.54814599  1.51538638  1
  Mo  Mo37  1  6.27494101  0.00340385  3.17840206  1
  Mo  Mo38  1  7.92287297  1.56452101  4.72062305  1
  Mo  Mo39  1  6.27959634  0.01897969  6.33459159  1
  Mo  Mo40  1  7.98242783  1.60635301  7.87651837  1
  Mo  Mo41  1  6.34909812  3.10906788  0.02843929  1
  Mo  Mo42  1  7.88840392  4.72112712  1.56018111  1
  Mo  Mo43  1  6.30376317  3.20673058  3.18167808  1
  Mo  Mo44  1  7.84347677  4.77632779  4.73860243  1
  Mo  Mo45  1  6.29771158  3.17067156  6.27045224  1
  Mo  Mo46  1  7.92622101  4.70117495  7.84328780  1
  Mo  Mo47  1  6.31369966  6.20570866  0.00087453  1
  Mo  Mo48  1  7.89247910  7.97574275  1.60071595  1
  Mo  Mo49  1  6.33226596  6.34559353  3.16329748  1
  Mo  Mo50  1  7.89389655  7.94268814  4.79937365  1
  Mo  Mo51  1  6.32614323  6.29421745  6.30624603  1
  Mo  Mo52  1  7.92430911  7.90740576  7.95315394  1
