# generated using pymatgen
data_Mo
_symmetry_space_group_name_H-M   'P 1'
_cell_length_a   9.46604618
_cell_length_b   9.46604503
_cell_length_c   9.46605243
_cell_angle_alpha   89.99993799
_cell_angle_beta   90.00002894
_cell_angle_gamma   90.00006502
_symmetry_Int_Tables_number   1
_chemical_formula_structural   Mo
_chemical_formula_sum   Mo53
_cell_volume   848.21527775
_cell_formula_units_Z   53
loop_
 _symmetry_equiv_pos_site_id
 _symmetry_equiv_pos_as_xyz
  1  'x, y, z'
loop_
 _atom_site_type_symbol
 _atom_site_label
 _atom_site_symmetry_multiplicity
 _atom_site_fract_x
 _atom_site_fract_y
 _atom_site_fract_z
 _atom_site_occupancy
  Mo  Mo0  1  1.55785101  1.50673497  1.53020580  1
  Mo  Mo1  1  0.01157662  0.05336113  3.09919049  1
  Mo  Mo2  1  1.55358611  1.55210535  4.68526294  1
  Mo  Mo3  1  0.04678617  0.03874927  6.31256581  1
  Mo  Mo4  1  1.59557368  1.56712784  7.90731879  1
  Mo  Mo5  1  0.00034969  3.15021002  0.02199531  1
  Mo  Mo6  1  1.57056310  4.76014816  1.63439388  1
  Mo  Mo7  1  0.00915167  3.15482302  3.16460344  1
  Mo  Mo8  1  1.58416909  4.72991816  4.77638185  1
  Mo  Mo9  1  0.02844265  3.18966592  6.29812018  1
  Mo  Mo10  1  1.50618688  4.72298764  7.94323621  1
  Mo  Mo11  1  -0.05199081  6.30552780  -0.04601921  1
  Mo  Mo12  1  1.54953506  7.84646753  1.54741481  1
  Mo  Mo13  1  -0.02428568  6.37568770  3.14579414  1
  Mo  Mo14  1  1.54986868  7.92088947  4.69852017  1
  Mo  Mo15  1  -0.05430650  6.39107049  6.26088345  1
  Mo  Mo16  1  1.49361709  7.87568233  7.91777060  1
  Mo  Mo17  1  3.16033577  -0.03116672  -0.05289918  1
  Mo  Mo18  1  4.75618960  1.48960645  1.52502643  1
  Mo  Mo19  1  3.16743615  -0.01826968  3.10843355  1
  Mo  Mo20  1  4.68901964  1.58778558  4.71847957  1
  Mo  Mo21  1  3.17143156  0.07136212  6.31725616  1
  Mo  Mo22  1  4.71135546  1.52221445  7.87067018  1
  Mo  Mo23  1  3.18243993  3.18855973  0.04323821  1
  Mo  Mo24  1  4.81918484  4.72773586  1.55812976  1
  Mo  Mo25  1  3.18665781  3.17923299  3.07694811  1
  Mo  Mo26  1  4.74768403  4.75792538  4.73689359  1
  Mo  Mo27  1  3.14645031  3.17747894  6.32507535  1
  Mo  Mo28  1  4.77359738  4.70757080  7.89584555  1
  Mo  Mo29  1  3.11024153  6.26182197  -0.02893627  1
  Mo  Mo30  1  4.74743608  7.88122504  1.59752380  1
  Mo  Mo31  1  3.18054251  6.30272180  3.17085378  1
  Mo  Mo32  1  4.73420919  7.94023586  4.88011546  1
  Mo  Mo33  1  3.09800840  6.34583651  6.35087120  1
  Mo  Mo34  1  4.74157878  7.85330350  8.03895535  1
  Mo  Mo35  1  6.35022565  0.02145736  0.03516186  1
  Mo  Mo36  1  7.96569220  1.54155412  1.57328700  1
  Mo  Mo37  1  6.25358967  -0.01221832  3.20375038  1
  Mo  Mo38  1  7.92074234  1.61295412  4.70298914  1
  Mo  Mo39  1  6.32586503  0.00129863  6.37385312  1
  Mo  Mo40  1  7.98129534  1.50916828  7.91029974  1
  Mo  Mo41  1  6.33858217  3.10111533  -0.03957231  1
  Mo  Mo42  1  7.92664327  4.77312139  1.57716627  1
  Mo  Mo43  1  6.25659319  3.09701034  3.11501371  1
  Mo  Mo44  1  7.92847373  4.75737407  4.68854848  1
  Mo  Mo45  1  6.33644109  3.09691226  6.28561324  1
  Mo  Mo46  1  7.89546286  4.70667882  7.86816653  1
  Mo  Mo47  1  6.30134016  6.29216051  -0.04017248  1
  Mo  Mo48  1  7.84414128  7.90366684  1.56959034  1
  Mo  Mo49  1  6.28732895  6.30215280  3.18164825  1
  Mo  Mo50  1  7.89136409  7.98481688  4.75346786  1
  Mo  Mo51  1  6.23337914  6.27217028  6.32409317  1
  Mo  Mo52  1  7.89823097  7.93827663  7.87321762  1
