# generated using pymatgen
data_Mo
_symmetry_space_group_name_H-M   'P 1'
_cell_length_a   9.46604618
_cell_length_b   9.46604503
_cell_length_c   9.46605243
_cell_angle_alpha   89.99993799
_cell_angle_beta   90.00002894
_cell_angle_gamma   90.00006502
_symmetry_Int_Tables_number   1
_chemical_formula_structural   Mo
_chemical_formula_sum   Mo53
_cell_volume   848.21527775
_cell_formula_units_Z   53
loop_
 _symmetry_equiv_pos_site_id
 _symmetry_equiv_pos_as_xyz
  1  'x, y, z'
loop_
 _atom_site_type_symbol
 _atom_site_label
 _atom_site_symmetry_multiplicity
 _atom_site_fract_x
 _atom_site_fract_y
 _atom_site_fract_z
 _atom_site_occupancy
  Mo  Mo0  1  1.55128751  1.56712615  1.58582473  1
  Mo  Mo1  1  -0.00647520  0.01841064  3.13181205  1
  Mo  Mo2  1  1.53541545  1.59757456  4.74011926  1
  Mo  Mo3  1  -0.04511703  -0.02501128  6.41411861  1
  Mo  Mo4  1  1.53002031  1.56977831  7.87758598  1
  Mo  Mo5  1  0.00964932  3.10650930  0.00477644  1
  Mo  Mo6  1  1.61604967  4.69603499  1.54252637  1
  Mo  Mo7  1  0.05677769  3.14670335  3.21218264  1
  Mo  Mo8  1  1.54229646  4.77227565  4.71046369  1
  Mo  Mo9  1  -0.02007968  3.16300857  6.38038311  1
  Mo  Mo10  1  1.53243034  4.75033499  7.88059918  1
  Mo  Mo11  1  0.04564648  6.33255483  -0.01789637  1
  Mo  Mo12  1  1.52770901  8.02034885  1.55812129  1
  Mo  Mo13  1  0.02876673  6.24946464  3.08055612  1
  Mo  Mo14  1  1.54126768  7.95745984  4.74279931  1
  Mo  Mo15  1  0.00229196  6.22671160  6.33421231  1
  Mo  Mo16  1  1.61278696  7.92717018  7.95300550  1
  Mo  Mo17  1  3.14669877  -0.03621079  0.01414734  1
  Mo  Mo18  1  4.72049475  1.60194857  1.53811052  1
  Mo  Mo19  1  3.08249274  0.01242849  3.19067647  1
  Mo  Mo20  1  4.78881818  1.55494922  4.71491420  1
  Mo  Mo21  1  3.13698340  -0.02435022  6.32116739  1
  Mo  Mo22  1  4.76706808  1.58347568  7.83703046  1
  Mo  Mo23  1  3.16991182  3.09612977  -0.06406995  1
  Mo  Mo24  1  4.68720570  4.68732614  1.57019924  1
  Mo  Mo25  1  3.16568162  3.15307004  3.20452388  1
  Mo  Mo26  1  4.73746126  4.71830418  4.73061987  1
  Mo  Mo27  1  3.16389481  3.16925066  6.24868405  1
  Mo  Mo28  1  4.68012639  4.77839676  7.85265321  1
  Mo  Mo29  1  3.22411447  6.29362825  0.04189288  1
  Mo  Mo30  1  4.69679587  7.91694213  1.62879587  1
  Mo  Mo31  1  3.12744860  6.29657876  3.13983481  1
  Mo  Mo32  1  4.71558655  7.88138028  4.68381183  1
  Mo  Mo33  1  3.18087725  6.27086706  6.31525841  1
  Mo  Mo34  1  4.72668058  7.92667536  7.89502443  1
  Mo  Mo35  1  6.33113011  -0.02171235  -0.00138650  1
  Mo  Mo36  1  7.87161277  1.56183309  1.55108300  1
  Mo  Mo37  1  6.32908604  0.01511471  3.14554336  1
  Mo  Mo38  1  7.91635453  1.46293113  4.75174856  1
  Mo  Mo39  1  6.29977412  0.01056930  6.28859249  1
  Mo  Mo40  1  7.86241245  1.54918968  7.91281940  1
  Mo  Mo41  1  6.30323962  3.21467313  -0.00929777  1
  Mo  Mo42  1  7.94166028  4.68766629  1.54118681  1
  Mo  Mo43  1  6.40424646  3.23805929  3.16039606  1
  Mo  Mo44  1  7.87206271  4.71185205  4.73286067  1
  Mo  Mo45  1  6.25820944  3.24737247  6.29309486  1
  Mo  Mo46  1  7.85640684  4.76204036  7.90850758  1
  Mo  Mo47  1  6.27780464  6.31120647  0.01466783  1
  Mo  Mo48  1  7.97845524  7.90206037  1.58663378  1
  Mo  Mo49  1  6.35455514  6.31117024  3.13690101  1
  Mo  Mo50  1  7.89756542  7.82848632  4.72089998  1
  Mo  Mo51  1  6.33547978  6.34956143  6.29905838  1
  Mo  Mo52  1  7.91674450  7.88668833  7.95846662  1
