# generated using pymatgen
data_Mo
_symmetry_space_group_name_H-M   'P 1'
_cell_length_a   9.46603830
_cell_length_b   9.46603830
_cell_length_c   9.46603730
_cell_angle_alpha   90.00000000
_cell_angle_beta   90.00000000
_cell_angle_gamma   90.00000000
_symmetry_Int_Tables_number   1
_chemical_formula_structural   Mo
_chemical_formula_sum   Mo53
_cell_volume   848.21261229
_cell_formula_units_Z   53
loop_
 _symmetry_equiv_pos_site_id
 _symmetry_equiv_pos_as_xyz
  1  'x, y, z'
loop_
 _atom_site_type_symbol
 _atom_site_label
 _atom_site_symmetry_multiplicity
 _atom_site_fract_x
 _atom_site_fract_y
 _atom_site_fract_z
 _atom_site_occupancy
  Mo  Mo0  1  1.62249165  1.56349548  1.50612533  1
  Mo  Mo1  1  -0.03041424  0.06210762  3.09735841  1
  Mo  Mo2  1  1.56085924  1.53264117  4.73032159  1
  Mo  Mo3  1  0.00700487  0.05056993  6.28997241  1
  Mo  Mo4  1  1.57540309  1.57938927  7.95336343  1
  Mo  Mo5  1  0.08693383  3.12063363  -0.00718846  1
  Mo  Mo6  1  1.54298478  4.76257755  1.55902775  1
  Mo  Mo7  1  -0.05662921  3.12947420  3.11479871  1
  Mo  Mo8  1  1.48947433  4.69289252  4.64248805  1
  Mo  Mo9  1  -0.10187135  3.18320273  6.26273860  1
  Mo  Mo10  1  1.48214050  4.77119393  7.88366159  1
  Mo  Mo11  1  -0.00241612  6.30165893  -0.03097061  1
  Mo  Mo12  1  1.52384778  7.83046895  1.59518778  1
  Mo  Mo13  1  -0.03249988  6.31158264  3.23325515  1
  Mo  Mo14  1  1.60769843  7.80937148  4.69906529  1
  Mo  Mo15  1  -0.04618106  6.30861076  6.30937602  1
  Mo  Mo16  1  1.53222271  7.88037759  7.76976957  1
  Mo  Mo17  1  3.14985238  -0.04901946  0.06107168  1
  Mo  Mo18  1  4.69711667  1.54352005  1.57730702  1
  Mo  Mo19  1  3.16374602  0.04067282  3.18586287  1
  Mo  Mo20  1  4.70898569  1.57973328  4.73632375  1
  Mo  Mo21  1  3.14469818  0.06665896  6.29640604  1
  Mo  Mo22  1  4.69579316  1.47965708  7.95414877  1
  Mo  Mo23  1  3.25868424  3.15077606  0.00851172  1
  Mo  Mo24  1  4.73865198  4.81528675  1.55851540  1
  Mo  Mo25  1  3.14339044  3.11551879  3.12103632  1
  Mo  Mo26  1  4.67793273  4.69093741  4.70384418  1
  Mo  Mo27  1  3.17727591  3.20897506  6.30957107  1
  Mo  Mo28  1  4.75761796  4.74191801  7.84928849  1
  Mo  Mo29  1  3.20675910  6.27153726  0.04288585  1
  Mo  Mo30  1  4.76181526  7.88843993  1.54519501  1
  Mo  Mo31  1  3.21178160  6.34101959  3.19334005  1
  Mo  Mo32  1  4.83699747  7.91877218  4.81780782  1
  Mo  Mo33  1  3.14259128  6.28543340  6.25831411  1
  Mo  Mo34  1  4.69856638  7.82798134  7.93339618  1
  Mo  Mo35  1  6.31635944  -0.03406394  0.02150162  1
  Mo  Mo36  1  7.83531048  1.66119078  1.53015123  1
  Mo  Mo37  1  6.32770414  0.01700725  3.19234066  1
  Mo  Mo38  1  7.89354842  1.51996385  4.76770390  1
  Mo  Mo39  1  6.32450828  0.02669469  6.28436343  1
  Mo  Mo40  1  7.93651691  1.60356579  7.87620114  1
  Mo  Mo41  1  6.39552028  3.10514285  0.03140142  1
  Mo  Mo42  1  7.90243898  4.75037392  1.53221722  1
  Mo  Mo43  1  6.26439129  3.15883868  3.21232957  1
  Mo  Mo44  1  7.86878961  4.70224891  4.66724878  1
  Mo  Mo45  1  6.27657956  3.18835606  6.36281305  1
  Mo  Mo46  1  7.91008570  4.85479765  7.94449003  1
  Mo  Mo47  1  6.36400590  6.31547723  -0.00083296  1
  Mo  Mo48  1  7.91132335  7.91598115  1.64813117  1
  Mo  Mo49  1  6.26989865  6.32377458  3.17803773  1
  Mo  Mo50  1  7.93468340  7.84704825  4.76301904  1
  Mo  Mo51  1  6.34073477  6.29622957  6.29373171  1
  Mo  Mo52  1  7.98015666  7.92516245  7.91982996  1
