# generated using pymatgen
data_Mo
_symmetry_space_group_name_H-M   'P 1'
_cell_length_a   9.46603830
_cell_length_b   9.46603830
_cell_length_c   9.46603730
_cell_angle_alpha   90.00000000
_cell_angle_beta   90.00000000
_cell_angle_gamma   90.00000000
_symmetry_Int_Tables_number   1
_chemical_formula_structural   Mo
_chemical_formula_sum   Mo53
_cell_volume   848.21261229
_cell_formula_units_Z   53
loop_
 _symmetry_equiv_pos_site_id
 _symmetry_equiv_pos_as_xyz
  1  'x, y, z'
loop_
 _atom_site_type_symbol
 _atom_site_label
 _atom_site_symmetry_multiplicity
 _atom_site_fract_x
 _atom_site_fract_y
 _atom_site_fract_z
 _atom_site_occupancy
  Mo  Mo0  1  1.60286501  1.53823199  1.49195846  1
  Mo  Mo1  1  -0.00475776  0.03105149  3.10723134  1
  Mo  Mo2  1  1.51836445  1.52601542  4.70519757  1
  Mo  Mo3  1  0.03231457  0.04501826  6.30748731  1
  Mo  Mo4  1  1.58765686  1.56066540  7.93291014  1
  Mo  Mo5  1  0.06722489  3.11380498  -0.00474575  1
  Mo  Mo6  1  1.55255778  4.74734607  1.49763443  1
  Mo  Mo7  1  -0.06048680  3.10183642  3.11914353  1
  Mo  Mo8  1  1.49385283  4.66680813  4.65746243  1
  Mo  Mo9  1  -0.07537326  3.17516858  6.23587982  1
  Mo  Mo10  1  1.52960966  4.72909594  7.86750845  1
  Mo  Mo11  1  0.02595275  6.39056415  0.05635026  1
  Mo  Mo12  1  1.53757659  7.84112620  1.57949389  1
  Mo  Mo13  1  -0.04593198  6.27384089  3.17168839  1
  Mo  Mo14  1  1.59994190  7.85073148  4.70284319  1
  Mo  Mo15  1  -0.04302578  6.30144988  6.26263231  1
  Mo  Mo16  1  1.53332320  7.86259254  7.79445624  1
  Mo  Mo17  1  3.09597992  -0.08288368  0.03453689  1
  Mo  Mo18  1  4.72401705  1.54655011  1.55641387  1
  Mo  Mo19  1  3.18070333  0.03126838  3.21051278  1
  Mo  Mo20  1  4.70894992  1.56713197  4.78512972  1
  Mo  Mo21  1  3.18392910  0.06069330  6.30554504  1
  Mo  Mo22  1  4.70717212  1.47171636  7.96361286  1
  Mo  Mo23  1  3.28755934  3.16758869  0.01445182  1
  Mo  Mo24  1  4.74989312  4.76602110  1.55462336  1
  Mo  Mo25  1  3.14677763  3.18475379  3.15357845  1
  Mo  Mo26  1  4.68451940  4.71875549  4.70631715  1
  Mo  Mo27  1  3.12811237  3.20879325  6.30014116  1
  Mo  Mo28  1  4.74186145  4.73542419  7.89697431  1
  Mo  Mo29  1  3.19760171  6.27752746  0.01840028  1
  Mo  Mo30  1  4.73307332  7.92004816  1.54783859  1
  Mo  Mo31  1  3.18958138  6.32531396  3.20243954  1
  Mo  Mo32  1  4.79293821  7.89955236  4.78665207  1
  Mo  Mo33  1  3.16491698  6.28972252  6.26209491  1
  Mo  Mo34  1  4.71844993  7.84056887  7.91090155  1
  Mo  Mo35  1  6.34956476  -0.03610658  0.00846380  1
  Mo  Mo36  1  7.85892869  1.64636778  1.56400024  1
  Mo  Mo37  1  6.30055353  0.03678466  3.19599539  1
  Mo  Mo38  1  7.90728926  1.55181765  4.74068968  1
  Mo  Mo39  1  6.32722299  0.03099187  6.33157364  1
  Mo  Mo40  1  7.91504099  1.60646622  7.89083083  1
  Mo  Mo41  1  6.35085251  3.12217462  0.00977545  1
  Mo  Mo42  1  7.92593235  4.79777492  1.54648575  1
  Mo  Mo43  1  6.22880844  3.16446745  3.18822182  1
  Mo  Mo44  1  7.82019731  4.70423526  4.71310851  1
  Mo  Mo45  1  6.25737653  3.17405645  6.33394288  1
  Mo  Mo46  1  7.91395041  4.80366140  7.93264101  1
  Mo  Mo47  1  6.35436293  6.30207352  0.01188751  1
  Mo  Mo48  1  7.92174103  7.91674801  1.60853975  1
  Mo  Mo49  1  6.29439088  6.30679978  3.21717119  1
  Mo  Mo50  1  7.98565084  7.90869910  4.77161630  1
  Mo  Mo51  1  6.29087425  6.29422180  6.29217621  1
  Mo  Mo52  1  7.99542270  7.97072858  7.93343926  1
