# generated using pymatgen
data_Mo
_symmetry_space_group_name_H-M   'P 1'
_cell_length_a   9.46603830
_cell_length_b   9.46603830
_cell_length_c   9.46603730
_cell_angle_alpha   90.00000000
_cell_angle_beta   90.00000000
_cell_angle_gamma   90.00000000
_symmetry_Int_Tables_number   1
_chemical_formula_structural   Mo
_chemical_formula_sum   Mo53
_cell_volume   848.21261229
_cell_formula_units_Z   53
loop_
 _symmetry_equiv_pos_site_id
 _symmetry_equiv_pos_as_xyz
  1  'x, y, z'
loop_
 _atom_site_type_symbol
 _atom_site_label
 _atom_site_symmetry_multiplicity
 _atom_site_fract_x
 _atom_site_fract_y
 _atom_site_fract_z
 _atom_site_occupancy
  Mo  Mo0  1  1.56397421  1.51762686  1.50532212  1
  Mo  Mo1  1  0.03103376  -0.04326344  3.12507936  1
  Mo  Mo2  1  1.52515196  1.54389413  4.68253669  1
  Mo  Mo3  1  0.05255907  0.01353693  6.35266273  1
  Mo  Mo4  1  1.58137735  1.53350121  7.88143759  1
  Mo  Mo5  1  0.00106234  3.12557728  -0.01470522  1
  Mo  Mo6  1  1.59898292  4.70756423  1.45919207  1
  Mo  Mo7  1  -0.04489175  3.09803887  3.12162186  1
  Mo  Mo8  1  1.52451490  4.68504773  4.71009059  1
  Mo  Mo9  1  -0.01647204  3.14709079  6.25072398  1
  Mo  Mo10  1  1.59920750  4.68557744  7.85262789  1
  Mo  Mo11  1  0.03657642  6.44390943  0.06932135  1
  Mo  Mo12  1  1.59260293  7.90947371  1.55155943  1
  Mo  Mo13  1  -0.03606421  6.24126848  3.10755560  1
  Mo  Mo14  1  1.58251637  7.89991903  4.71819074  1
  Mo  Mo15  1  -0.01432463  6.29252062  6.24674076  1
  Mo  Mo16  1  1.55484100  7.84817689  7.89293217  1
  Mo  Mo17  1  3.06555125  -0.06108459  -0.01615310  1
  Mo  Mo18  1  4.74187919  1.56240348  1.54729234  1
  Mo  Mo19  1  3.18093775  0.01462299  3.21093232  1
  Mo  Mo20  1  4.71531379  1.57499933  4.80719136  1
  Mo  Mo21  1  3.21623458  0.00801855  6.33670876  1
  Mo  Mo22  1  4.73443068  1.51301793  7.93107215  1
  Mo  Mo23  1  3.22250031  3.15903990  0.02658008  1
  Mo  Mo24  1  4.76368713  4.70148893  1.56482623  1
  Mo  Mo25  1  3.14424869  3.22902499  3.18233411  1
  Mo  Mo26  1  4.70448797  4.75776156  4.74487733  1
  Mo  Mo27  1  3.07920260  3.16419922  6.30516264  1
  Mo  Mo28  1  4.72684853  4.71559352  7.94378960  1
  Mo  Mo29  1  3.16350328  6.31778180  -0.02130479  1
  Mo  Mo30  1  4.70380398  7.92811732  1.56109517  1
  Mo  Mo31  1  3.12872129  6.30358920  3.16904400  1
  Mo  Mo32  1  4.72332379  7.89559491  4.71139239  1
  Mo  Mo33  1  3.16667122  6.31647485  6.29740205  1
  Mo  Mo34  1  4.76449826  7.86191298  7.87262102  1
  Mo  Mo35  1  6.36597744  -0.01604569  -0.00041908  1
  Mo  Mo36  1  7.91724371  1.58537636  1.60325618  1
  Mo  Mo37  1  6.27881298  0.03072436  3.17634049  1
  Mo  Mo38  1  7.89345643  1.61493305  4.71326902  1
  Mo  Mo39  1  6.34228815  0.01339831  6.36396946  1
  Mo  Mo40  1  7.88500307  1.58942022  7.91946923  1
  Mo  Mo41  1  6.29365856  3.16010612  -0.01697776  1
  Mo  Mo42  1  7.94510842  4.80097473  1.58853089  1
  Mo  Mo43  1  6.23658438  3.16313504  3.14476979  1
  Mo  Mo44  1  7.81285847  4.73075700  4.78580037  1
  Mo  Mo45  1  6.25105125  3.14357248  6.29041447  1
  Mo  Mo46  1  7.91558292  4.71792007  7.91574057  1
  Mo  Mo47  1  6.31716611  6.30637065  0.01591409  1
  Mo  Mo48  1  7.91778599  7.92973402  1.54616241  1
  Mo  Mo49  1  6.31745296  6.31444189  3.22069675  1
  Mo  Mo50  1  7.98332442  7.98940459  4.76428505  1
  Mo  Mo51  1  6.25490019  6.31646609  6.32319313  1
  Mo  Mo52  1  7.97911370  7.98315029  7.94368723  1
