# generated using pymatgen
data_Mo
_symmetry_space_group_name_H-M   'P 1'
_cell_length_a   9.46603830
_cell_length_b   9.46603830
_cell_length_c   9.46603730
_cell_angle_alpha   90.00000000
_cell_angle_beta   90.00000000
_cell_angle_gamma   90.00000000
_symmetry_Int_Tables_number   1
_chemical_formula_structural   Mo
_chemical_formula_sum   Mo53
_cell_volume   848.21261229
_cell_formula_units_Z   53
loop_
 _symmetry_equiv_pos_site_id
 _symmetry_equiv_pos_as_xyz
  1  'x, y, z'
loop_
 _atom_site_type_symbol
 _atom_site_label
 _atom_site_symmetry_multiplicity
 _atom_site_fract_x
 _atom_site_fract_y
 _atom_site_fract_z
 _atom_site_occupancy
  Mo  Mo0  1  1.52519066  1.52504907  1.55895559  1
  Mo  Mo1  1  -0.00185365  -0.03651837  3.14324334  1
  Mo  Mo2  1  1.61162653  1.53270927  4.72637908  1
  Mo  Mo3  1  -0.00384447  -0.03845287  6.36287516  1
  Mo  Mo4  1  1.54480807  1.53763971  7.84061057  1
  Mo  Mo5  1  -0.06064706  3.14271904  -0.03677284  1
  Mo  Mo6  1  1.62015352  4.68881158  1.55883742  1
  Mo  Mo7  1  -0.01410191  3.18752327  3.13827755  1
  Mo  Mo8  1  1.57388717  4.76553264  4.74321161  1
  Mo  Mo9  1  -0.02906198  3.14376369  6.31882240  1
  Mo  Mo10  1  1.54987336  4.70031374  7.88941237  1
  Mo  Mo11  1  -0.02534997  6.25974640  -0.09608165  1
  Mo  Mo12  1  1.62432533  7.97021336  1.51236673  1
  Mo  Mo13  1  0.00529325  6.30050019  3.16815044  1
  Mo  Mo14  1  1.54229242  7.89752649  4.73960411  1
  Mo  Mo15  1  0.00132297  6.31777745  6.35963017  1
  Mo  Mo16  1  1.60105418  7.88735670  7.96462411  1
  Mo  Mo17  1  3.20000462  0.10425986  -0.01571137  1
  Mo  Mo18  1  4.71992537  1.57439094  1.58202812  1
  Mo  Mo19  1  3.13315550  0.00577852  3.14006446  1
  Mo  Mo20  1  4.73785995  1.59367782  4.67657658  1
  Mo  Mo21  1  3.18931615  -0.07535557  6.33260328  1
  Mo  Mo22  1  4.76292202  1.56990172  7.88644216  1
  Mo  Mo23  1  3.02648416  3.14051119  0.00539224  1
  Mo  Mo24  1  4.74529661  4.73916289  1.60152769  1
  Mo  Mo25  1  3.13720154  3.13412775  3.17571179  1
  Mo  Mo26  1  4.71592508  4.77299209  4.79253065  1
  Mo  Mo27  1  3.17835639  3.10333041  6.31805211  1
  Mo  Mo28  1  4.74125771  4.69267804  7.89770408  1
  Mo  Mo29  1  3.17954421  6.34196088  -0.01302945  1
  Mo  Mo30  1  4.73044431  7.91712594  1.52016207  1
  Mo  Mo31  1  3.11500314  6.29567091  3.10170427  1
  Mo  Mo32  1  4.72302179  7.94258312  4.68944988  1
  Mo  Mo33  1  3.13725719  6.29456605  6.32937729  1
  Mo  Mo34  1  4.75548972  7.90860056  7.91489375  1
  Mo  Mo35  1  6.28825698  0.02682004  -0.00390411  1
  Mo  Mo36  1  8.00952373  1.51816057  1.59127403  1
  Mo  Mo37  1  6.29293861  -0.02977115  3.11589982  1
  Mo  Mo38  1  7.92603341  1.61839427  4.74393739  1
  Mo  Mo39  1  6.34778921  -0.02561012  6.24431225  1
  Mo  Mo40  1  7.92492126  1.55404560  7.92293549  1
  Mo  Mo41  1  6.26404598  3.17019747  0.01079048  1
  Mo  Mo42  1  7.94846444  4.65932045  1.59718296  1
  Mo  Mo43  1  6.32765793  3.20020408  3.17646894  1
  Mo  Mo44  1  7.95605486  4.80431653  4.77742873  1
  Mo  Mo45  1  6.29013650  3.18260310  6.30573025  1
  Mo  Mo46  1  7.91081804  4.71479259  7.95138029  1
  Mo  Mo47  1  6.28174084  6.31053931  -0.02059138  1
  Mo  Mo48  1  7.89129221  7.92157300  1.59088508  1
  Mo  Mo49  1  6.26960275  6.33959174  3.11433041  1
  Mo  Mo50  1  7.85170063  7.96796944  4.75836238  1
  Mo  Mo51  1  6.33018290  6.33436987  6.33195996  1
  Mo  Mo52  1  7.88126740  7.88016535  7.94984690  1
