# generated using pymatgen
data_Mo
_symmetry_space_group_name_H-M   'P 1'
_cell_length_a   9.46603830
_cell_length_b   9.46603830
_cell_length_c   9.46603730
_cell_angle_alpha   90.00000000
_cell_angle_beta   90.00000000
_cell_angle_gamma   90.00000000
_symmetry_Int_Tables_number   1
_chemical_formula_structural   Mo
_chemical_formula_sum   Mo53
_cell_volume   848.21261229
_cell_formula_units_Z   53
loop_
 _symmetry_equiv_pos_site_id
 _symmetry_equiv_pos_as_xyz
  1  'x, y, z'
loop_
 _atom_site_type_symbol
 _atom_site_label
 _atom_site_symmetry_multiplicity
 _atom_site_fract_x
 _atom_site_fract_y
 _atom_site_fract_z
 _atom_site_occupancy
  Mo  Mo0  1  1.52951182  1.55188687  1.58386286  1
  Mo  Mo1  1  -0.04501780  0.01636569  3.15520686  1
  Mo  Mo2  1  1.59381579  1.51266759  4.76892694  1
  Mo  Mo3  1  -0.04145039  -0.03278631  6.33752325  1
  Mo  Mo4  1  1.54525784  1.54767618  7.87000845  1
  Mo  Mo5  1  -0.03236026  3.09700110  -0.01140463  1
  Mo  Mo6  1  1.55671762  4.73884106  1.59852701  1
  Mo  Mo7  1  0.01182087  3.20413644  3.19725527  1
  Mo  Mo8  1  1.60526759  4.75210001  4.72996215  1
  Mo  Mo9  1  -0.03610517  3.18121771  6.30571651  1
  Mo  Mo10  1  1.51084258  4.72246109  7.89670982  1
  Mo  Mo11  1  -0.02241046  6.20376129  -0.02426558  1
  Mo  Mo12  1  1.55088003  7.93193350  1.50262744  1
  Mo  Mo13  1  0.01445865  6.35970479  3.17857541  1
  Mo  Mo14  1  1.52206722  7.89449257  4.74345248  1
  Mo  Mo15  1  -0.00178296  6.35036424  6.37347538  1
  Mo  Mo16  1  1.58049214  7.93527971  7.91985277  1
  Mo  Mo17  1  3.20650255  0.09692644  0.00509670  1
  Mo  Mo18  1  4.74846073  1.61472163  1.59066202  1
  Mo  Mo19  1  3.11676927  -0.03038909  3.12532498  1
  Mo  Mo20  1  4.78485113  1.54899081  4.65359496  1
  Mo  Mo21  1  3.16937553  -0.04394008  6.27802961  1
  Mo  Mo22  1  4.77874788  1.56689367  7.87945179  1
  Mo  Mo23  1  3.06399434  3.20176747  -0.00754027  1
  Mo  Mo24  1  4.71090734  4.76494766  1.59136600  1
  Mo  Mo25  1  3.14651782  3.11751102  3.16064548  1
  Mo  Mo26  1  4.74336983  4.75338259  4.74338803  1
  Mo  Mo27  1  3.21110455  3.14304844  6.29851834  1
  Mo  Mo28  1  4.72305361  4.71720961  7.88959875  1
  Mo  Mo29  1  3.20703858  6.29455750  0.00788290  1
  Mo  Mo30  1  4.74609752  7.94998150  1.52916243  1
  Mo  Mo31  1  3.17491105  6.31005525  3.13295278  1
  Mo  Mo32  1  4.71865869  7.89342510  4.74248504  1
  Mo  Mo33  1  3.15597089  6.25823117  6.31273516  1
  Mo  Mo34  1  4.70753590  7.93293421  7.93772334  1
  Mo  Mo35  1  6.32291990  0.01980476  -0.03021272  1
  Mo  Mo36  1  7.99884281  1.53524920  1.55716560  1
  Mo  Mo37  1  6.30132313  -0.01187025  3.09363323  1
  Mo  Mo38  1  7.99536253  1.57500983  4.76366407  1
  Mo  Mo39  1  6.30137524  0.00173907  6.21334577  1
  Mo  Mo40  1  7.94952184  1.53008576  7.91150543  1
  Mo  Mo41  1  6.24673744  3.13372752  0.03519525  1
  Mo  Mo42  1  7.92852243  4.66030037  1.58438401  1
  Mo  Mo43  1  6.34041691  3.20941747  3.20921677  1
  Mo  Mo44  1  7.97259329  4.80704223  4.72379148  1
  Mo  Mo45  1  6.34256347  3.21354335  6.32149110  1
  Mo  Mo46  1  7.85438858  4.73904451  7.94163645  1
  Mo  Mo47  1  6.30315797  6.26446690  -0.02869149  1
  Mo  Mo48  1  7.90386653  7.88649121  1.63132676  1
  Mo  Mo49  1  6.26340838  6.29567885  3.08933289  1
  Mo  Mo50  1  7.84500310  7.89488844  4.73964507  1
  Mo  Mo51  1  6.33023812  6.29978899  6.28210661  1
  Mo  Mo52  1  7.82974764  7.87408998  7.95022890  1
