# generated using pymatgen
data_Mo
_symmetry_space_group_name_H-M   'P 1'
_cell_length_a   9.46603830
_cell_length_b   9.46603830
_cell_length_c   9.46603730
_cell_angle_alpha   90.00000000
_cell_angle_beta   90.00000000
_cell_angle_gamma   90.00000000
_symmetry_Int_Tables_number   1
_chemical_formula_structural   Mo
_chemical_formula_sum   Mo53
_cell_volume   848.21261229
_cell_formula_units_Z   53
loop_
 _symmetry_equiv_pos_site_id
 _symmetry_equiv_pos_as_xyz
  1  'x, y, z'
loop_
 _atom_site_type_symbol
 _atom_site_label
 _atom_site_symmetry_multiplicity
 _atom_site_fract_x
 _atom_site_fract_y
 _atom_site_fract_z
 _atom_site_occupancy
  Mo  Mo0  1  1.56639796  1.57617583  1.59615174  1
  Mo  Mo1  1  -0.04162311  0.02523789  3.14449098  1
  Mo  Mo2  1  1.57173055  1.50315025  4.77695961  1
  Mo  Mo3  1  -0.03734955  -0.00263465  6.33942979  1
  Mo  Mo4  1  1.56407510  1.53716171  7.90532142  1
  Mo  Mo5  1  0.00056223  3.06414123  0.02076801  1
  Mo  Mo6  1  1.50545797  4.78783204  1.58089858  1
  Mo  Mo7  1  0.03826420  3.18803019  3.24612932  1
  Mo  Mo8  1  1.61570759  4.73466182  4.73208852  1
  Mo  Mo9  1  0.00898966  3.22546524  6.30514547  1
  Mo  Mo10  1  1.50155183  4.73961247  7.88103268  1
  Mo  Mo11  1  0.01651125  6.26948999  0.09445441  1
  Mo  Mo12  1  1.47218018  7.89439919  1.51322477  1
  Mo  Mo13  1  0.02592011  6.36544821  3.15030536  1
  Mo  Mo14  1  1.50678530  7.89359509  4.74940757  1
  Mo  Mo15  1  0.02126755  6.35197546  6.32915585  1
  Mo  Mo16  1  1.53357707  7.94842104  7.89561434  1
  Mo  Mo17  1  3.12458419  0.03553525  0.00838334  1
  Mo  Mo18  1  4.78525168  1.63267883  1.56466341  1
  Mo  Mo19  1  3.12278055  -0.05174725  3.13645962  1
  Mo  Mo20  1  4.81612878  1.50328407  4.70602096  1
  Mo  Mo21  1  3.16638628  0.02302709  6.25732285  1
  Mo  Mo22  1  4.77329268  1.56235058  7.86805541  1
  Mo  Mo23  1  3.16338161  3.25068047  -0.00153155  1
  Mo  Mo24  1  4.68902831  4.75014999  1.56562967  1
  Mo  Mo25  1  3.17015738  3.15035131  3.15386811  1
  Mo  Mo26  1  4.77829511  4.70538201  4.68499009  1
  Mo  Mo27  1  3.19601349  3.18008627  6.26873155  1
  Mo  Mo28  1  4.68820326  4.75117528  7.90381434  1
  Mo  Mo29  1  3.18671318  6.28500472  0.01279270  1
  Mo  Mo30  1  4.73391293  7.97899407  1.57554216  1
  Mo  Mo31  1  3.20473479  6.31898443  3.18359175  1
  Mo  Mo32  1  4.69341875  7.83245657  4.76076490  1
  Mo  Mo33  1  3.18104791  6.26000882  6.29889759  1
  Mo  Mo34  1  4.68395494  7.94590172  7.91993598  1
  Mo  Mo35  1  6.39981048  0.00128378  -0.03684518  1
  Mo  Mo36  1  7.94192585  1.56833052  1.53015482  1
  Mo  Mo37  1  6.29753639  0.01499785  3.09844096  1
  Mo  Mo38  1  8.00365724  1.55612175  4.76054416  1
  Mo  Mo39  1  6.26786467  0.02457151  6.24634417  1
  Mo  Mo40  1  7.94424156  1.50781008  7.91831258  1
  Mo  Mo41  1  6.25359560  3.10871341  0.02671777  1
  Mo  Mo42  1  7.90825452  4.71949962  1.58439341  1
  Mo  Mo43  1  6.33536665  3.17302039  3.19356937  1
  Mo  Mo44  1  7.93031366  4.77460558  4.70718314  1
  Mo  Mo45  1  6.37420194  3.19465950  6.30261115  1
  Mo  Mo46  1  7.81536360  4.72020654  7.91471806  1
  Mo  Mo47  1  6.32393189  6.22766704  -0.00913931  1
  Mo  Mo48  1  7.91056968  7.87121185  1.60367584  1
  Mo  Mo49  1  6.30017331  6.25799359  3.11846471  1
  Mo  Mo50  1  7.86805563  7.87651971  4.72013794  1
  Mo  Mo51  1  6.27695953  6.27232926  6.25220144  1
  Mo  Mo52  1  7.80674770  7.89984741  7.92585928  1
