# generated using pymatgen
data_Mo
_symmetry_space_group_name_H-M   'P 1'
_cell_length_a   9.46603830
_cell_length_b   9.46603830
_cell_length_c   9.46603730
_cell_angle_alpha   90.00000000
_cell_angle_beta   90.00000000
_cell_angle_gamma   90.00000000
_symmetry_Int_Tables_number   1
_chemical_formula_structural   Mo
_chemical_formula_sum   Mo53
_cell_volume   848.21261229
_cell_formula_units_Z   53
loop_
 _symmetry_equiv_pos_site_id
 _symmetry_equiv_pos_as_xyz
  1  'x, y, z'
loop_
 _atom_site_type_symbol
 _atom_site_label
 _atom_site_symmetry_multiplicity
 _atom_site_fract_x
 _atom_site_fract_y
 _atom_site_fract_z
 _atom_site_occupancy
  Mo  Mo0  1  1.64997833  1.60539130  1.52984908  1
  Mo  Mo1  1  -0.00688567  0.00148671  3.11383921  1
  Mo  Mo2  1  1.58197410  1.59026466  4.68533232  1
  Mo  Mo3  1  0.05581387  0.05636305  6.30877329  1
  Mo  Mo4  1  1.56857470  1.60311567  7.86813985  1
  Mo  Mo5  1  0.03603820  3.22086528  0.04090542  1
  Mo  Mo6  1  1.66857542  4.74115903  1.51255732  1
  Mo  Mo7  1  -0.01274179  3.11309095  3.13758858  1
  Mo  Mo8  1  1.56297245  4.68493370  4.70679473  1
  Mo  Mo9  1  0.01901495  3.12854791  6.38871049  1
  Mo  Mo10  1  1.57643811  4.73924227  7.92601460  1
  Mo  Mo11  1  -0.06229162  6.38415984  -0.11546762  1
  Mo  Mo12  1  1.55924876  7.94886147  1.62485757  1
  Mo  Mo13  1  -0.00549295  6.22187690  3.16722460  1
  Mo  Mo14  1  1.54447478  7.88627415  4.68264205  1
  Mo  Mo15  1  -0.01475587  6.29379455  6.25419266  1
  Mo  Mo16  1  1.51649043  7.84012837  7.87236268  1
  Mo  Mo17  1  3.11883456  -0.00477822  0.04138999  1
  Mo  Mo18  1  4.71037810  1.50774252  1.47706420  1
  Mo  Mo19  1  3.15100285  0.03205167  3.23479130  1
  Mo  Mo20  1  4.67035796  1.59672744  4.71284366  1
  Mo  Mo21  1  3.15365640  -0.01844194  6.39062175  1
  Mo  Mo22  1  4.72236525  1.47950995  7.91048635  1
  Mo  Mo23  1  3.15288495  3.15691870  -0.00498384  1
  Mo  Mo24  1  4.80454923  4.76790191  1.53407805  1
  Mo  Mo25  1  3.20811087  3.17034945  3.15564554  1
  Mo  Mo26  1  4.70588256  4.74353922  4.75384091  1
  Mo  Mo27  1  3.16434320  3.17653932  6.36408734  1
  Mo  Mo28  1  4.73340241  4.70021472  7.86683831  1
  Mo  Mo29  1  3.13932684  6.38546108  0.00273723  1
  Mo  Mo30  1  4.67567490  7.87410384  1.60720136  1
  Mo  Mo31  1  3.16471061  6.28144911  3.15088155  1
  Mo  Mo32  1  4.73124141  7.97067229  4.75678188  1
  Mo  Mo33  1  3.15099283  6.35106392  6.28243998  1
  Mo  Mo34  1  4.69633634  7.83506555  7.96620466  1
  Mo  Mo35  1  6.25693262  -0.04649892  -0.01644207  1
  Mo  Mo36  1  7.89899651  1.59068010  1.55693199  1
  Mo  Mo37  1  6.28800160  -0.06219324  3.19673251  1
  Mo  Mo38  1  7.88090741  1.58339906  4.73401833  1
  Mo  Mo39  1  6.37674217  -0.02169026  6.34665161  1
  Mo  Mo40  1  7.92362661  1.57041193  7.93536955  1
  Mo  Mo41  1  6.35361206  3.17064086  -0.07661125  1
  Mo  Mo42  1  7.93993403  4.75459040  1.55528007  1
  Mo  Mo43  1  6.31676358  3.12229921  3.10718922  1
  Mo  Mo44  1  7.88963944  4.66040481  4.78225401  1
  Mo  Mo45  1  6.26982479  3.10882994  6.31978907  1
  Mo  Mo46  1  7.90544643  4.71458893  7.94003173  1
  Mo  Mo47  1  6.29047065  6.34389026  -0.01623746  1
  Mo  Mo48  1  7.85610458  7.98238578  1.59343517  1
  Mo  Mo49  1  6.33169916  6.31609462  3.20513064  1
  Mo  Mo50  1  7.88744418  7.98175209  4.73168587  1
  Mo  Mo51  1  6.35594772  6.29297357  6.33002065  1
  Mo  Mo52  1  7.87229057  7.85765107  7.85335891  1
