# generated using pymatgen
data_Mo
_symmetry_space_group_name_H-M   'P 1'
_cell_length_a   9.46603830
_cell_length_b   9.46603830
_cell_length_c   9.46603730
_cell_angle_alpha   90.00000000
_cell_angle_beta   90.00000000
_cell_angle_gamma   90.00000000
_symmetry_Int_Tables_number   1
_chemical_formula_structural   Mo
_chemical_formula_sum   Mo53
_cell_volume   848.21261229
_cell_formula_units_Z   53
loop_
 _symmetry_equiv_pos_site_id
 _symmetry_equiv_pos_as_xyz
  1  'x, y, z'
loop_
 _atom_site_type_symbol
 _atom_site_label
 _atom_site_symmetry_multiplicity
 _atom_site_fract_x
 _atom_site_fract_y
 _atom_site_fract_z
 _atom_site_occupancy
  Mo  Mo0  1  1.50807355  1.55331761  1.51997974  1
  Mo  Mo1  1  -0.00982895  0.00331897  3.12520033  1
  Mo  Mo2  1  1.55362735  1.55998168  4.73712038  1
  Mo  Mo3  1  -0.01270581  -0.04553050  6.31532183  1
  Mo  Mo4  1  1.55106024  1.55376582  7.91483080  1
  Mo  Mo5  1  -0.02074092  3.09225627  -0.01951193  1
  Mo  Mo6  1  1.60484078  4.75046816  1.54779139  1
  Mo  Mo7  1  -0.06750130  3.14428220  3.16775801  1
  Mo  Mo8  1  1.55740010  4.71216729  4.69247098  1
  Mo  Mo9  1  -0.08837082  3.16451528  6.26308495  1
  Mo  Mo10  1  1.54541120  4.72444862  7.84274347  1
  Mo  Mo11  1  0.04974344  6.34106955  0.05735867  1
  Mo  Mo12  1  1.56016406  7.90423621  1.46568619  1
  Mo  Mo13  1  -0.00516491  6.30816416  3.08177106  1
  Mo  Mo14  1  1.56732007  7.91391836  4.68907327  1
  Mo  Mo15  1  -0.00975052  6.28928067  6.23912142  1
  Mo  Mo16  1  1.59124473  7.89749408  7.87162816  1
  Mo  Mo17  1  3.09576760  -0.01591091  0.02172391  1
  Mo  Mo18  1  4.73790020  1.61597394  1.57147269  1
  Mo  Mo19  1  3.11598480  -0.03559178  3.19582747  1
  Mo  Mo20  1  4.76415297  1.59647181  4.72316254  1
  Mo  Mo21  1  3.20177420  -0.02087522  6.31009825  1
  Mo  Mo22  1  4.76359736  1.52710750  7.86989190  1
  Mo  Mo23  1  3.19116726  3.20545151  -0.00626366  1
  Mo  Mo24  1  4.77338474  4.71989441  1.57835319  1
  Mo  Mo25  1  3.12265006  3.16450574  3.15888820  1
  Mo  Mo26  1  4.73257898  4.81124320  4.74626315  1
  Mo  Mo27  1  3.13271589  3.13582238  6.27317744  1
  Mo  Mo28  1  4.77117234  4.70521125  7.93020000  1
  Mo  Mo29  1  3.18415755  6.24280415  -0.00182364  1
  Mo  Mo30  1  4.76116425  7.93552688  1.61368976  1
  Mo  Mo31  1  3.18352621  6.32772020  3.18680679  1
  Mo  Mo32  1  4.74874209  7.87644427  4.81984339  1
  Mo  Mo33  1  3.13380294  6.24052922  6.30834528  1
  Mo  Mo34  1  4.73279499  7.86046476  7.93135271  1
  Mo  Mo35  1  6.35951063  -0.00067311  -0.00950004  1
  Mo  Mo36  1  7.93734389  1.56042753  1.53242655  1
  Mo  Mo37  1  6.26427527  0.05254357  3.14258703  1
  Mo  Mo38  1  7.92048903  1.60607691  4.72983482  1
  Mo  Mo39  1  6.30864339  0.03022241  6.24746959  1
  Mo  Mo40  1  7.94505165  1.55653512  7.94713945  1
  Mo  Mo41  1  6.26750715  3.12532654  0.04054525  1
  Mo  Mo42  1  7.97387203  4.72603152  1.60767392  1
  Mo  Mo43  1  6.22003413  3.21585353  3.22660097  1
  Mo  Mo44  1  7.88980285  4.75788021  4.71921863  1
  Mo  Mo45  1  6.27472957  3.18316591  6.30862204  1
  Mo  Mo46  1  7.90771659  4.76082047  7.94734637  1
  Mo  Mo47  1  6.34214745  6.29216434  -0.03394590  1
  Mo  Mo48  1  7.92112791  7.89946014  1.65765460  1
  Mo  Mo49  1  6.27574797  6.29166973  3.16235095  1
  Mo  Mo50  1  7.95369583  7.87856889  4.73831686  1
  Mo  Mo51  1  6.30391445  6.31217185  6.29201910  1
  Mo  Mo52  1  7.89839511  7.97766331  7.98705724  1
