# generated using pymatgen
data_Mo
_symmetry_space_group_name_H-M   'P 1'
_cell_length_a   9.46603830
_cell_length_b   9.46603830
_cell_length_c   9.46603730
_cell_angle_alpha   90.00000000
_cell_angle_beta   90.00000000
_cell_angle_gamma   90.00000000
_symmetry_Int_Tables_number   1
_chemical_formula_structural   Mo
_chemical_formula_sum   Mo53
_cell_volume   848.21261229
_cell_formula_units_Z   53
loop_
 _symmetry_equiv_pos_site_id
 _symmetry_equiv_pos_as_xyz
  1  'x, y, z'
loop_
 _atom_site_type_symbol
 _atom_site_label
 _atom_site_symmetry_multiplicity
 _atom_site_fract_x
 _atom_site_fract_y
 _atom_site_fract_z
 _atom_site_occupancy
  Mo  Mo0  1  1.50621471  1.53284719  1.53159642  1
  Mo  Mo1  1  -0.01573944  -0.02525963  3.10684406  1
  Mo  Mo2  1  1.56005836  1.48322880  4.73979799  1
  Mo  Mo3  1  -0.01494234  -0.04330382  6.35948545  1
  Mo  Mo4  1  1.56656115  1.49374152  7.90752888  1
  Mo  Mo5  1  -0.03607010  3.06274790  -0.03376642  1
  Mo  Mo6  1  1.53075427  4.73253674  1.53254923  1
  Mo  Mo7  1  -0.03979847  3.16057018  3.16849105  1
  Mo  Mo8  1  1.52888387  4.78082801  4.68933941  1
  Mo  Mo9  1  -0.07402192  3.21488788  6.25256636  1
  Mo  Mo10  1  1.47903994  4.72256979  7.82064236  1
  Mo  Mo11  1  0.08160758  6.31958610  0.01582998  1
  Mo  Mo12  1  1.58735907  7.93008680  1.45910879  1
  Mo  Mo13  1  0.02655116  6.32020644  3.10875504  1
  Mo  Mo14  1  1.57880507  7.88294626  4.75833016  1
  Mo  Mo15  1  0.00537590  6.31339353  6.27598958  1
  Mo  Mo16  1  1.56800011  7.89929958  7.92778643  1
  Mo  Mo17  1  3.12125770  -0.00258464  -0.01821614  1
  Mo  Mo18  1  4.73107997  1.61723361  1.57172418  1
  Mo  Mo19  1  3.12429943  -0.01314424  3.13619411  1
  Mo  Mo20  1  4.78416520  1.55786084  4.75833438  1
  Mo  Mo21  1  3.20554372  0.02291288  6.27117076  1
  Mo  Mo22  1  4.75816850  1.58158424  7.86704118  1
  Mo  Mo23  1  3.18938055  3.13479237  0.02729805  1
  Mo  Mo24  1  4.71885169  4.75404371  1.61045865  1
  Mo  Mo25  1  3.07355273  3.15887327  3.16215776  1
  Mo  Mo26  1  4.74398318  4.70534057  4.74288603  1
  Mo  Mo27  1  3.13225795  3.11172981  6.23447101  1
  Mo  Mo28  1  4.75501807  4.73896531  7.91837761  1
  Mo  Mo29  1  3.22172753  6.25962994  0.01488947  1
  Mo  Mo30  1  4.77436099  7.99031731  1.57329678  1
  Mo  Mo31  1  3.14380601  6.33574322  3.16818875  1
  Mo  Mo32  1  4.76041447  7.86051058  4.74460576  1
  Mo  Mo33  1  3.13813467  6.25065714  6.33715387  1
  Mo  Mo34  1  4.77650303  7.91236277  7.92334667  1
  Mo  Mo35  1  6.36663056  0.02499776  0.03376776  1
  Mo  Mo36  1  7.94768692  1.58027346  1.56326483  1
  Mo  Mo37  1  6.24608746  0.06387402  3.12942548  1
  Mo  Mo38  1  7.92631097  1.57029153  4.74583757  1
  Mo  Mo39  1  6.29847074  0.02748484  6.22416707  1
  Mo  Mo40  1  7.92407045  1.53094228  7.91645213  1
  Mo  Mo41  1  6.28097608  3.11493381  0.06946137  1
  Mo  Mo42  1  7.94857194  4.71570832  1.61290484  1
  Mo  Mo43  1  6.24325788  3.19374244  3.21623405  1
  Mo  Mo44  1  7.88616332  4.83596461  4.72934783  1
  Mo  Mo45  1  6.30206908  3.21404876  6.29140348  1
  Mo  Mo46  1  7.90877258  4.75183527  7.95801672  1
  Mo  Mo47  1  6.35167178  6.25197373  0.02273748  1
  Mo  Mo48  1  7.94053867  7.85861733  1.59712093  1
  Mo  Mo49  1  6.27379974  6.31134571  3.12959154  1
  Mo  Mo50  1  7.93819741  7.88940620  4.77879787  1
  Mo  Mo51  1  6.25668308  6.34067081  6.32350621  1
  Mo  Mo52  1  7.95475857  7.95200373  7.97956483  1
