# generated using pymatgen
data_Mo
_symmetry_space_group_name_H-M   'P 1'
_cell_length_a   9.46603830
_cell_length_b   9.46603830
_cell_length_c   9.46603730
_cell_angle_alpha   90.00000000
_cell_angle_beta   90.00000000
_cell_angle_gamma   90.00000000
_symmetry_Int_Tables_number   1
_chemical_formula_structural   Mo
_chemical_formula_sum   Mo53
_cell_volume   848.21261229
_cell_formula_units_Z   53
loop_
 _symmetry_equiv_pos_site_id
 _symmetry_equiv_pos_as_xyz
  1  'x, y, z'
loop_
 _atom_site_type_symbol
 _atom_site_label
 _atom_site_symmetry_multiplicity
 _atom_site_fract_x
 _atom_site_fract_y
 _atom_site_fract_z
 _atom_site_occupancy
  Mo  Mo0  1  1.53865949  1.51628676  1.53344099  1
  Mo  Mo1  1  -0.01896293  -0.04410512  3.11440109  1
  Mo  Mo2  1  1.55291473  1.43740663  4.72380779  1
  Mo  Mo3  1  0.01061908  0.01644130  6.38000195  1
  Mo  Mo4  1  1.57468766  1.47302095  7.86019750  1
  Mo  Mo5  1  -0.01474615  3.07734807  -0.02187243  1
  Mo  Mo6  1  1.50421826  4.70149492  1.48452587  1
  Mo  Mo7  1  -0.00515689  3.15315546  3.15751092  1
  Mo  Mo8  1  1.51915205  4.78797603  4.69990088  1
  Mo  Mo9  1  -0.02624338  3.21276534  6.26748669  1
  Mo  Mo10  1  1.48637754  4.70240413  7.84250647  1
  Mo  Mo11  1  0.03112857  6.27939752  -0.06630956  1
  Mo  Mo12  1  1.61197342  7.94843747  1.52754035  1
  Mo  Mo13  1  0.02678457  6.32428929  3.15766157  1
  Mo  Mo14  1  1.58332575  7.85473396  4.81063049  1
  Mo  Mo15  1  -0.00854904  6.36324519  6.34414882  1
  Mo  Mo16  1  1.55700628  7.89662013  7.96258632  1
  Mo  Mo17  1  3.19643438  0.04101620  -0.05179571  1
  Mo  Mo18  1  4.70536902  1.59219392  1.56132840  1
  Mo  Mo19  1  3.15837505  0.02755975  3.09846590  1
  Mo  Mo20  1  4.74206703  1.53112534  4.73870860  1
  Mo  Mo21  1  3.18969924  0.01501900  6.27857904  1
  Mo  Mo22  1  4.75745289  1.60232198  7.89428029  1
  Mo  Mo23  1  3.14020885  3.08885131  0.04451033  1
  Mo  Mo24  1  4.67576135  4.78505721  1.61860723  1
  Mo  Mo25  1  3.07130511  3.14770114  3.16853646  1
  Mo  Mo26  1  4.70285113  4.64715706  4.74687687  1
  Mo  Mo27  1  3.13397927  3.13212639  6.27355305  1
  Mo  Mo28  1  4.72045031  4.74849527  7.90889102  1
  Mo  Mo29  1  3.23919636  6.32344561  0.02676528  1
  Mo  Mo30  1  4.74610608  7.99266711  1.51260194  1
  Mo  Mo31  1  3.12236593  6.32045295  3.13592183  1
  Mo  Mo32  1  4.73787223  7.88703944  4.65838562  1
  Mo  Mo33  1  3.16874166  6.30824097  6.33689552  1
  Mo  Mo34  1  4.80718097  7.95078025  7.91468523  1
  Mo  Mo35  1  6.32780979  0.02404254  0.02218048  1
  Mo  Mo36  1  7.93939270  1.60237691  1.62166358  1
  Mo  Mo37  1  6.27183589  0.01379158  3.12032949  1
  Mo  Mo38  1  7.95642146  1.55026824  4.76397020  1
  Mo  Mo39  1  6.31343325  0.00110618  6.27465987  1
  Mo  Mo40  1  7.89395602  1.52958454  7.87092194  1
  Mo  Mo41  1  6.31251281  3.13591437  0.04930603  1
  Mo  Mo42  1  7.91714904  4.72604376  1.59506670  1
  Mo  Mo43  1  6.31128835  3.15210202  3.16385976  1
  Mo  Mo44  1  7.88601756  4.84595340  4.76253052  1
  Mo  Mo45  1  6.32401589  3.21232411  6.30898133  1
  Mo  Mo46  1  7.89740044  4.73210881  7.94849066  1
  Mo  Mo47  1  6.32713563  6.24151835  0.06971377  1
  Mo  Mo48  1  7.94083616  7.85947516  1.53025022  1
  Mo  Mo49  1  6.28836659  6.34314159  3.13214854  1
  Mo  Mo50  1  7.90322791  7.93745907  4.79792434  1
  Mo  Mo51  1  6.25245144  6.34967901  6.36479448  1
  Mo  Mo52  1  7.98400481  7.88679799  7.94510109  1
