# generated using pymatgen
data_Mo
_symmetry_space_group_name_H-M   'P 1'
_cell_length_a   9.46603830
_cell_length_b   9.46603830
_cell_length_c   9.46603730
_cell_angle_alpha   90.00000000
_cell_angle_beta   90.00000000
_cell_angle_gamma   90.00000000
_symmetry_Int_Tables_number   1
_chemical_formula_structural   Mo
_chemical_formula_sum   Mo53
_cell_volume   848.21261229
_cell_formula_units_Z   53
loop_
 _symmetry_equiv_pos_site_id
 _symmetry_equiv_pos_as_xyz
  1  'x, y, z'
loop_
 _atom_site_type_symbol
 _atom_site_label
 _atom_site_symmetry_multiplicity
 _atom_site_fract_x
 _atom_site_fract_y
 _atom_site_fract_z
 _atom_site_occupancy
  Mo  Mo0  1  1.55996067  1.48042081  1.51732205  1
  Mo  Mo1  1  0.02479472  -0.00844798  3.15363741  1
  Mo  Mo2  1  1.58299906  1.54070071  4.71471801  1
  Mo  Mo3  1  0.00953039  0.00842430  6.35992239  1
  Mo  Mo4  1  1.57426868  1.57189987  7.87105996  1
  Mo  Mo5  1  -0.01118774  3.09817740  -0.03082027  1
  Mo  Mo6  1  1.55298567  4.69652864  1.52362211  1
  Mo  Mo7  1  0.01729029  3.16041470  3.12863624  1
  Mo  Mo8  1  1.56892143  4.65543411  4.73673618  1
  Mo  Mo9  1  0.03303271  3.14878311  6.30547624  1
  Mo  Mo10  1  1.61758536  4.70523116  7.90445351  1
  Mo  Mo11  1  -0.03835897  6.32482626  0.05380919  1
  Mo  Mo12  1  1.52440179  7.82652531  1.59773800  1
  Mo  Mo13  1  -0.05183438  6.30843530  3.19464413  1
  Mo  Mo14  1  1.50330402  7.87774827  4.71549071  1
  Mo  Mo15  1  -0.00540038  6.33980349  6.35513782  1
  Mo  Mo16  1  1.57319257  7.90863700  7.89645199  1
  Mo  Mo17  1  3.17332507  0.06889057  -0.00225994  1
  Mo  Mo18  1  4.74964294  1.60810712  1.57704067  1
  Mo  Mo19  1  3.19361699  0.00722550  3.15627402  1
  Mo  Mo20  1  4.70767267  1.57000789  4.69823005  1
  Mo  Mo21  1  3.20770748  -0.00718061  6.32913258  1
  Mo  Mo22  1  4.73290547  1.55334737  7.90838098  1
  Mo  Mo23  1  3.11494514  3.23716466  0.00142051  1
  Mo  Mo24  1  4.70526133  4.69350986  1.57953233  1
  Mo  Mo25  1  3.20728687  3.14980073  3.17975956  1
  Mo  Mo26  1  4.68510659  4.75968439  4.72209355  1
  Mo  Mo27  1  3.18573559  3.19324802  6.37637793  1
  Mo  Mo28  1  4.69170563  4.69893482  7.93815166  1
  Mo  Mo29  1  3.13988031  6.40032999  -0.01472529  1
  Mo  Mo30  1  4.71225159  7.87571969  1.50209550  1
  Mo  Mo31  1  3.15720533  6.29806196  3.15764055  1
  Mo  Mo32  1  4.69552551  7.90055486  4.68276400  1
  Mo  Mo33  1  3.20802960  6.35726077  6.30728260  1
  Mo  Mo34  1  4.73094683  7.86879558  7.83129383  1
  Mo  Mo35  1  6.37417161  -0.00665351  -0.07758937  1
  Mo  Mo36  1  7.92013389  1.57047554  1.60878770  1
  Mo  Mo37  1  6.37124591  -0.04748312  3.11130420  1
  Mo  Mo38  1  7.94902551  1.62343137  4.73759870  1
  Mo  Mo39  1  6.31430417  -0.00799877  6.32687249  1
  Mo  Mo40  1  7.92262058  1.61693732  7.90434378  1
  Mo  Mo41  1  6.27535620  3.17885494  0.00049654  1
  Mo  Mo42  1  7.90311865  4.75551635  1.57208066  1
  Mo  Mo43  1  6.33067400  3.17685952  3.17883317  1
  Mo  Mo44  1  7.89880048  4.71368608  4.75379456  1
  Mo  Mo45  1  6.26729233  3.12467894  6.31815494  1
  Mo  Mo46  1  7.88156126  4.70658779  7.87195122  1
  Mo  Mo47  1  6.28122984  6.30564413  0.00764892  1
  Mo  Mo48  1  7.89798433  7.92746028  1.52506574  1
  Mo  Mo49  1  6.30198303  6.30564728  3.22913657  1
  Mo  Mo50  1  7.86216080  7.96432057  4.74073259  1
  Mo  Mo51  1  6.30644336  6.28283640  6.30966710  1
  Mo  Mo52  1  7.89351884  7.91804987  7.93845535  1
