# generated using pymatgen
data_Mo
_symmetry_space_group_name_H-M   'P 1'
_cell_length_a   9.46603830
_cell_length_b   9.46603830
_cell_length_c   9.46603730
_cell_angle_alpha   90.00000000
_cell_angle_beta   90.00000000
_cell_angle_gamma   90.00000000
_symmetry_Int_Tables_number   1
_chemical_formula_structural   Mo
_chemical_formula_sum   Mo53
_cell_volume   848.21261229
_cell_formula_units_Z   53
loop_
 _symmetry_equiv_pos_site_id
 _symmetry_equiv_pos_as_xyz
  1  'x, y, z'
loop_
 _atom_site_type_symbol
 _atom_site_label
 _atom_site_symmetry_multiplicity
 _atom_site_fract_x
 _atom_site_fract_y
 _atom_site_fract_z
 _atom_site_occupancy
  Mo  Mo0  1  1.59984145  1.61611508  1.61010321  1
  Mo  Mo1  1  0.00002514  0.04572324  3.10628380  1
  Mo  Mo2  1  1.63000754  1.58304308  4.73703618  1
  Mo  Mo3  1  -0.00764157  -0.02355592  6.34376400  1
  Mo  Mo4  1  1.58239938  1.60418463  8.01101748  1
  Mo  Mo5  1  -0.01564991  3.19786352  0.01414881  1
  Mo  Mo6  1  1.55890473  4.69812151  1.65884657  1
  Mo  Mo7  1  0.00753042  3.14727541  3.12279825  1
  Mo  Mo8  1  1.60207441  4.71083769  4.73192193  1
  Mo  Mo9  1  0.00990868  3.12964304  6.30797214  1
  Mo  Mo10  1  1.50656021  4.78800229  7.90482454  1
  Mo  Mo11  1  -0.00934714  6.41848825  0.01664455  1
  Mo  Mo12  1  1.53089424  7.82784035  1.60857644  1
  Mo  Mo13  1  -0.01623219  6.26023455  3.20375374  1
  Mo  Mo14  1  1.48669048  7.90827910  4.68573504  1
  Mo  Mo15  1  0.03780658  6.22109318  6.27524544  1
  Mo  Mo16  1  1.49802972  7.89564233  7.79753090  1
  Mo  Mo17  1  3.06647986  -0.06414685  0.04828239  1
  Mo  Mo18  1  4.76885888  1.47760402  1.56536573  1
  Mo  Mo19  1  3.19744658  -0.02282063  3.20168910  1
  Mo  Mo20  1  4.78383297  1.57272416  4.76181865  1
  Mo  Mo21  1  3.13070383  0.02642122  6.30568569  1
  Mo  Mo22  1  4.68227792  1.54695184  7.95181514  1
  Mo  Mo23  1  3.18301149  3.21633716  0.02499897  1
  Mo  Mo24  1  4.77751480  4.75197309  1.54825525  1
  Mo  Mo25  1  3.20644544  3.17384939  3.13972016  1
  Mo  Mo26  1  4.79625619  4.74138381  4.76237016  1
  Mo  Mo27  1  3.19578794  3.15799751  6.25453025  1
  Mo  Mo28  1  4.78770282  4.76669883  7.85871116  1
  Mo  Mo29  1  3.13217814  6.31322268  0.01329066  1
  Mo  Mo30  1  4.73952399  7.84701681  1.56248137  1
  Mo  Mo31  1  3.17413869  6.30538618  3.19922260  1
  Mo  Mo32  1  4.73100280  7.89988350  4.75777996  1
  Mo  Mo33  1  3.11468735  6.26065681  6.27394268  1
  Mo  Mo34  1  4.66865077  7.91054692  7.87948576  1
  Mo  Mo35  1  6.31620129  -0.01467757  0.04950395  1
  Mo  Mo36  1  7.94730053  1.56939350  1.47894059  1
  Mo  Mo37  1  6.28891268  0.03431499  3.18513624  1
  Mo  Mo38  1  7.91117116  1.60918041  4.68276093  1
  Mo  Mo39  1  6.30319191  -0.04904469  6.25439895  1
  Mo  Mo40  1  7.90461405  1.61282658  7.89406833  1
  Mo  Mo41  1  6.27005919  3.13982113  -0.01043680  1
  Mo  Mo42  1  7.87518173  4.70216584  1.55212664  1
  Mo  Mo43  1  6.28026122  3.16662502  3.16585702  1
  Mo  Mo44  1  7.94215151  4.69455036  4.72373029  1
  Mo  Mo45  1  6.31038392  3.14056572  6.30995579  1
  Mo  Mo46  1  7.95947916  4.78220542  7.94346288  1
  Mo  Mo47  1  6.31689511  6.31610886  -0.05097641  1
  Mo  Mo48  1  7.83276435  7.93244434  1.59952228  1
  Mo  Mo49  1  6.29612001  6.28204816  3.13803965  1
  Mo  Mo50  1  7.89135708  7.91597415  4.70737853  1
  Mo  Mo51  1  6.34977775  6.26609840  6.27577976  1
  Mo  Mo52  1  7.85173629  7.97473819  7.84095829  1
