# generated using pymatgen
data_Mo
_symmetry_space_group_name_H-M   'P 1'
_cell_length_a   9.46603805
_cell_length_b   9.46603785
_cell_length_c   9.46603779
_cell_angle_alpha   90.00000282
_cell_angle_beta   89.99999931
_cell_angle_gamma   89.99999840
_symmetry_Int_Tables_number   1
_chemical_formula_structural   Mo
_chemical_formula_sum   Mo53
_cell_volume   848.21259331
_cell_formula_units_Z   53
loop_
 _symmetry_equiv_pos_site_id
 _symmetry_equiv_pos_as_xyz
  1  'x, y, z'
loop_
 _atom_site_type_symbol
 _atom_site_label
 _atom_site_symmetry_multiplicity
 _atom_site_fract_x
 _atom_site_fract_y
 _atom_site_fract_z
 _atom_site_occupancy
  Mo  Mo0  1  1.58290439  1.64761437  1.49401529  1
  Mo  Mo1  1  0.01759165  -0.07734468  3.17279335  1
  Mo  Mo2  1  1.65912315  1.52540546  4.64899827  1
  Mo  Mo3  1  0.06508121  -0.04345512  6.32322722  1
  Mo  Mo4  1  1.57093119  1.62422072  7.81414987  1
  Mo  Mo5  1  0.06377039  3.17980775  -0.01314071  1
  Mo  Mo6  1  1.49736247  4.77175573  1.60531243  1
  Mo  Mo7  1  -0.06814056  3.08110596  3.19117395  1
  Mo  Mo8  1  1.54599824  4.76279433  4.75670895  1
  Mo  Mo9  1  -0.01302902  3.04177074  6.30350411  1
  Mo  Mo10  1  1.65607628  4.77039409  7.94488926  1
  Mo  Mo11  1  -0.01765693  6.35824546  0.03887362  1
  Mo  Mo12  1  1.48669843  7.92322448  1.48654572  1
  Mo  Mo13  1  0.09265255  6.28509634  3.18285223  1
  Mo  Mo14  1  1.50448849  7.87236466  4.77608735  1
  Mo  Mo15  1  -0.06588770  6.28504545  6.27995202  1
  Mo  Mo16  1  1.53712543  7.96678914  7.94456249  1
  Mo  Mo17  1  3.19018325  0.06384051  -0.02052270  1
  Mo  Mo18  1  4.84580695  1.65261658  1.46212269  1
  Mo  Mo19  1  3.17766640  0.02751267  3.16969106  1
  Mo  Mo20  1  4.79247781  1.59693713  4.64141642  1
  Mo  Mo21  1  3.16337952  -0.01817174  6.30938785  1
  Mo  Mo22  1  4.69009872  1.49667030  7.94657775  1
  Mo  Mo23  1  3.14357921  3.16505624  -0.02343961  1
  Mo  Mo24  1  4.66313782  4.73922622  1.52695235  1
  Mo  Mo25  1  3.08789010  3.13071112  3.01507436  1
  Mo  Mo26  1  4.70794041  4.68695465  4.87671858  1
  Mo  Mo27  1  3.09915866  3.13597147  6.39583980  1
  Mo  Mo28  1  4.74930191  4.80014063  7.96735245  1
  Mo  Mo29  1  3.17880654  6.27590171  -0.06586224  1
  Mo  Mo30  1  4.59847290  7.97071618  1.59859251  1
  Mo  Mo31  1  3.20856162  6.28815027  3.15992486  1
  Mo  Mo32  1  4.68016102  7.94201671  4.73887669  1
  Mo  Mo33  1  3.21308816  6.22330784  6.24165099  1
  Mo  Mo34  1  4.69633708  7.91293629  7.92573180  1
  Mo  Mo35  1  6.33356354  0.01968601  0.02772311  1
  Mo  Mo36  1  7.96139622  1.49885525  1.43787298  1
  Mo  Mo37  1  6.30864074  0.07721070  3.17234967  1
  Mo  Mo38  1  7.98078641  1.44327594  4.76538318  1
  Mo  Mo39  1  6.30905258  0.03435293  6.24009003  1
  Mo  Mo40  1  7.81199983  1.51907550  7.91220287  1
  Mo  Mo41  1  6.34080959  3.24065059  -0.00627059  1
  Mo  Mo42  1  7.89768948  4.74409808  1.42707610  1
  Mo  Mo43  1  6.32643782  3.26475124  3.17481074  1
  Mo  Mo44  1  7.95080076  4.66360967  4.83868940  1
  Mo  Mo45  1  6.39166157  3.07480309  6.40080716  1
  Mo  Mo46  1  7.92644785  4.68518913  7.98953598  1
  Mo  Mo47  1  6.27287947  6.34602793  0.07280414  1
  Mo  Mo48  1  7.75405883  7.87477691  1.51131687  1
  Mo  Mo49  1  6.39403769  6.36383699  3.18549765  1
  Mo  Mo50  1  7.91649164  7.86358376  4.73203378  1
  Mo  Mo51  1  6.33491616  6.32194553  6.38883542  1
  Mo  Mo52  1  7.77305635  7.88479448  7.89850070  1
