# generated using pymatgen
data_Mo
_symmetry_space_group_name_H-M   'P 1'
_cell_length_a   9.46603830
_cell_length_b   9.46603830
_cell_length_c   9.46603730
_cell_angle_alpha   90.00000000
_cell_angle_beta   90.00000000
_cell_angle_gamma   90.00000000
_symmetry_Int_Tables_number   1
_chemical_formula_structural   Mo
_chemical_formula_sum   Mo53
_cell_volume   848.21261229
_cell_formula_units_Z   53
loop_
 _symmetry_equiv_pos_site_id
 _symmetry_equiv_pos_as_xyz
  1  'x, y, z'
loop_
 _atom_site_type_symbol
 _atom_site_label
 _atom_site_symmetry_multiplicity
 _atom_site_fract_x
 _atom_site_fract_y
 _atom_site_fract_z
 _atom_site_occupancy
  Mo  Mo0  1  1.54212125  1.51813767  1.58645345  1
  Mo  Mo1  1  0.03492909  -0.02103578  3.11468919  1
  Mo  Mo2  1  1.55352072  1.53869029  4.75758287  1
  Mo  Mo3  1  -0.04507538  -0.03025479  6.32589091  1
  Mo  Mo4  1  1.55326451  1.56580124  7.88852530  1
  Mo  Mo5  1  0.00398788  3.04046551  -0.03530785  1
  Mo  Mo6  1  1.53500318  4.82367354  1.56062391  1
  Mo  Mo7  1  -0.00778701  3.23664712  3.16810553  1
  Mo  Mo8  1  1.54033170  4.71829763  4.77511890  1
  Mo  Mo9  1  -0.00325630  3.15252718  6.29869483  1
  Mo  Mo10  1  1.63976377  4.74461748  7.95747331  1
  Mo  Mo11  1  0.02610494  6.30572340  0.00454419  1
  Mo  Mo12  1  1.56205474  7.94638146  1.54865391  1
  Mo  Mo13  1  0.06334066  6.38393713  3.13302050  1
  Mo  Mo14  1  1.58764837  7.85502245  4.76525556  1
  Mo  Mo15  1  -0.03504198  6.33430138  6.32914873  1
  Mo  Mo16  1  1.55250685  7.95832083  8.02189526  1
  Mo  Mo17  1  3.12396318  0.06536018  -0.01015672  1
  Mo  Mo18  1  4.68655136  1.59673118  1.61298011  1
  Mo  Mo19  1  3.15709664  0.01733503  3.16639273  1
  Mo  Mo20  1  4.71180484  1.57008987  4.77512689  1
  Mo  Mo21  1  3.14032254  -0.02558225  6.31235138  1
  Mo  Mo22  1  4.74546042  1.64061861  7.92593833  1
  Mo  Mo23  1  3.14608249  3.11543901  -0.04623721  1
  Mo  Mo24  1  4.70487025  4.65605321  1.54998469  1
  Mo  Mo25  1  3.15404374  3.15539436  3.18661137  1
  Mo  Mo26  1  4.73442356  4.71602625  4.67371897  1
  Mo  Mo27  1  3.16196397  3.14055235  6.34036104  1
  Mo  Mo28  1  4.73233474  4.75801870  7.93300840  1
  Mo  Mo29  1  3.19303967  6.31391099  -0.06819347  1
  Mo  Mo30  1  4.69310525  7.92029740  1.57207755  1
  Mo  Mo31  1  3.19898821  6.28270682  3.13995159  1
  Mo  Mo32  1  4.71791562  7.89632733  4.73508229  1
  Mo  Mo33  1  3.19687334  6.29905234  6.31095667  1
  Mo  Mo34  1  4.70847830  7.93117185  7.92422576  1
  Mo  Mo35  1  6.36386718  -0.05541271  -0.02405426  1
  Mo  Mo36  1  7.87247949  1.49398652  1.55592664  1
  Mo  Mo37  1  6.35118221  -0.05292975  3.17684892  1
  Mo  Mo38  1  7.91546360  1.53357083  4.72253276  1
  Mo  Mo39  1  6.24315817  0.05965635  6.38233681  1
  Mo  Mo40  1  7.92638761  1.59216551  7.95740134  1
  Mo  Mo41  1  6.31704031  3.13374534  -0.01109420  1
  Mo  Mo42  1  7.91065758  4.76945190  1.51363326  1
  Mo  Mo43  1  6.34483355  3.12352314  3.12775674  1
  Mo  Mo44  1  7.87800470  4.75321074  4.69497590  1
  Mo  Mo45  1  6.31231362  3.16334950  6.25841288  1
  Mo  Mo46  1  7.90217218  4.74268528  7.81641809  1
  Mo  Mo47  1  6.32602952  6.27620064  0.01998838  1
  Mo  Mo48  1  7.92180912  7.91167017  1.49156666  1
  Mo  Mo49  1  6.33343567  6.27920807  3.19538377  1
  Mo  Mo50  1  7.87384626  7.92668969  4.69577465  1
  Mo  Mo51  1  6.25559576  6.31965266  6.27991007  1
  Mo  Mo52  1  7.92684988  7.89467575  7.89758834  1
