# generated using pymatgen
data_Mo
_symmetry_space_group_name_H-M   'P 1'
_cell_length_a   9.46603830
_cell_length_b   9.46603830
_cell_length_c   9.46603730
_cell_angle_alpha   90.00000000
_cell_angle_beta   90.00000000
_cell_angle_gamma   90.00000000
_symmetry_Int_Tables_number   1
_chemical_formula_structural   Mo
_chemical_formula_sum   Mo53
_cell_volume   848.21261229
_cell_formula_units_Z   53
loop_
 _symmetry_equiv_pos_site_id
 _symmetry_equiv_pos_as_xyz
  1  'x, y, z'
loop_
 _atom_site_type_symbol
 _atom_site_label
 _atom_site_symmetry_multiplicity
 _atom_site_fract_x
 _atom_site_fract_y
 _atom_site_fract_z
 _atom_site_occupancy
  Mo  Mo0  1  1.46385142  1.53248290  1.56135901  1
  Mo  Mo1  1  0.01131633  0.00583441  3.21312322  1
  Mo  Mo2  1  1.50117152  1.52421100  4.72731018  1
  Mo  Mo3  1  0.00666543  -0.03749971  6.39958816  1
  Mo  Mo4  1  1.53913190  1.54770042  7.87140538  1
  Mo  Mo5  1  -0.01513688  3.14465098  -0.00121524  1
  Mo  Mo6  1  1.50649607  4.65082935  1.59014333  1
  Mo  Mo7  1  0.01739296  3.15762264  3.14897048  1
  Mo  Mo8  1  1.56854256  4.74868910  4.74571058  1
  Mo  Mo9  1  -0.04636245  3.18300430  6.26936156  1
  Mo  Mo10  1  1.53415549  4.70796161  7.90584071  1
  Mo  Mo11  1  0.01147733  6.30486465  0.00420274  1
  Mo  Mo12  1  1.55022957  7.89886251  1.49566613  1
  Mo  Mo13  1  0.00389855  6.29290886  3.22119782  1
  Mo  Mo14  1  1.51626486  7.87937310  4.72561599  1
  Mo  Mo15  1  0.02610203  6.29378611  6.36045173  1
  Mo  Mo16  1  1.60206816  7.88261497  7.93182573  1
  Mo  Mo17  1  3.22565788  0.08881366  -0.01347187  1
  Mo  Mo18  1  4.75721928  1.53239814  1.56762910  1
  Mo  Mo19  1  3.24201509  -0.01047230  3.15291465  1
  Mo  Mo20  1  4.70896922  1.54929350  4.68673549  1
  Mo  Mo21  1  3.21878625  0.05063852  6.27429954  1
  Mo  Mo22  1  4.78546289  1.54316010  7.90020157  1
  Mo  Mo23  1  3.16187041  3.24939796  0.02831316  1
  Mo  Mo24  1  4.70013097  4.72527280  1.58629460  1
  Mo  Mo25  1  3.09365522  3.14924917  3.15571593  1
  Mo  Mo26  1  4.66716279  4.73585218  4.75252766  1
  Mo  Mo27  1  3.16094932  3.19208202  6.26263162  1
  Mo  Mo28  1  4.76444528  4.68785876  7.89478459  1
  Mo  Mo29  1  3.17924404  6.38541199  0.04412646  1
  Mo  Mo30  1  4.76458822  7.88545806  1.51685105  1
  Mo  Mo31  1  3.16817726  6.33728341  3.14480916  1
  Mo  Mo32  1  4.72476871  7.88882928  4.69867218  1
  Mo  Mo33  1  3.15276340  6.33472811  6.29403710  1
  Mo  Mo34  1  4.77783969  7.90213888  7.90879007  1
  Mo  Mo35  1  6.35073104  0.06529992  0.04049847  1
  Mo  Mo36  1  7.92276568  1.55601901  1.61037824  1
  Mo  Mo37  1  6.32189837  -0.00547121  3.17446231  1
  Mo  Mo38  1  7.86753225  1.63272261  4.71385186  1
  Mo  Mo39  1  6.32006224  -0.00317850  6.26077324  1
  Mo  Mo40  1  7.97350780  1.52787616  7.85323941  1
  Mo  Mo41  1  6.32818956  3.15706358  0.04656218  1
  Mo  Mo42  1  7.88782386  4.69259774  1.50967020  1
  Mo  Mo43  1  6.26933574  3.19033676  3.23148956  1
  Mo  Mo44  1  7.92846780  4.78797531  4.69418173  1
  Mo  Mo45  1  6.24955835  3.20424155  6.27454457  1
  Mo  Mo46  1  7.95415203  4.69762179  7.88672280  1
  Mo  Mo47  1  6.26947698  6.25279131  -0.01427379  1
  Mo  Mo48  1  7.92932861  7.88420217  1.51313389  1
  Mo  Mo49  1  6.27351702  6.29627965  3.12502674  1
  Mo  Mo50  1  7.92848071  7.93520152  4.77704878  1
  Mo  Mo51  1  6.28816333  6.30546482  6.29210100  1
  Mo  Mo52  1  7.87189946  7.86352103  7.97002486  1
