# generated using pymatgen
data_Mo
_symmetry_space_group_name_H-M   'P 1'
_cell_length_a   9.46603830
_cell_length_b   9.46603830
_cell_length_c   9.46603730
_cell_angle_alpha   90.00000000
_cell_angle_beta   90.00000000
_cell_angle_gamma   90.00000000
_symmetry_Int_Tables_number   1
_chemical_formula_structural   Mo
_chemical_formula_sum   Mo53
_cell_volume   848.21261229
_cell_formula_units_Z   53
loop_
 _symmetry_equiv_pos_site_id
 _symmetry_equiv_pos_as_xyz
  1  'x, y, z'
loop_
 _atom_site_type_symbol
 _atom_site_label
 _atom_site_symmetry_multiplicity
 _atom_site_fract_x
 _atom_site_fract_y
 _atom_site_fract_z
 _atom_site_occupancy
  Mo  Mo0  1  1.58907662  1.50358125  1.52838827  1
  Mo  Mo1  1  -0.03390217  -0.04241397  3.09088206  1
  Mo  Mo2  1  1.59953621  1.51908827  4.71094934  1
  Mo  Mo3  1  0.01622007  0.02227726  6.32907934  1
  Mo  Mo4  1  1.64157140  1.54909594  7.93090592  1
  Mo  Mo5  1  0.01248886  3.11520753  -0.01348110  1
  Mo  Mo6  1  1.53106061  4.71969193  1.57328308  1
  Mo  Mo7  1  -0.07656418  3.10935471  3.17817798  1
  Mo  Mo8  1  1.53536354  4.70381937  4.68520225  1
  Mo  Mo9  1  0.00731293  3.13265180  6.30448617  1
  Mo  Mo10  1  1.57122891  4.69980994  7.91472935  1
  Mo  Mo11  1  -0.01813195  6.39630501  0.02286907  1
  Mo  Mo12  1  1.50957479  7.85603870  1.59426610  1
  Mo  Mo13  1  -0.04242824  6.29500093  3.12934921  1
  Mo  Mo14  1  1.56319602  7.91040365  4.74269263  1
  Mo  Mo15  1  0.01070870  6.32474017  6.29774123  1
  Mo  Mo16  1  1.57926103  7.85922998  7.86173317  1
  Mo  Mo17  1  3.08797897  -0.03441766  -0.03454468  1
  Mo  Mo18  1  4.74571575  1.58062122  1.54668180  1
  Mo  Mo19  1  3.13560305  -0.00000852  3.07592825  1
  Mo  Mo20  1  4.73808590  1.60151359  4.74126875  1
  Mo  Mo21  1  3.12893753  0.00595028  6.26401325  1
  Mo  Mo22  1  4.74721155  1.54264967  7.90262101  1
  Mo  Mo23  1  3.17366347  3.18582418  0.00561541  1
  Mo  Mo24  1  4.71122054  4.77031279  1.58064348  1
  Mo  Mo25  1  3.19317381  3.15523966  3.16229298  1
  Mo  Mo26  1  4.74457793  4.78057792  4.75861087  1
  Mo  Mo27  1  3.12538782  3.16317801  6.32336239  1
  Mo  Mo28  1  4.70673718  4.74057901  7.89753482  1
  Mo  Mo29  1  3.18154896  6.33159475  0.01221246  1
  Mo  Mo30  1  4.74831528  7.91267246  1.51573502  1
  Mo  Mo31  1  3.08096901  6.33873506  3.19324680  1
  Mo  Mo32  1  4.77356603  7.89060723  4.69755804  1
  Mo  Mo33  1  3.18228383  6.33891890  6.33752567  1
  Mo  Mo34  1  4.76042794  7.89365994  7.82158287  1
  Mo  Mo35  1  6.34858018  -0.03405381  -0.00588956  1
  Mo  Mo36  1  7.98019367  1.61472109  1.53838135  1
  Mo  Mo37  1  6.31405941  0.03087229  3.17185411  1
  Mo  Mo38  1  7.95357183  1.61513832  4.77359664  1
  Mo  Mo39  1  6.30010450  -0.04415191  6.32071114  1
  Mo  Mo40  1  7.89519721  1.52427529  7.86992001  1
  Mo  Mo41  1  6.26214826  3.12365962  0.00126691  1
  Mo  Mo42  1  7.86950031  4.72905543  1.60747088  1
  Mo  Mo43  1  6.23186436  3.21292367  3.14998591  1
  Mo  Mo44  1  7.85546112  4.76053062  4.78604740  1
  Mo  Mo45  1  6.32266646  3.14048887  6.36065179  1
  Mo  Mo46  1  7.93397425  4.71032189  7.94884954  1
  Mo  Mo47  1  6.32737979  6.33250227  0.00029218  1
  Mo  Mo48  1  7.87775761  7.88302137  1.61929879  1
  Mo  Mo49  1  6.30242476  6.35378720  3.16266677  1
  Mo  Mo50  1  7.93848518  7.91961667  4.74487139  1
  Mo  Mo51  1  6.33967826  6.30236401  6.34267773  1
  Mo  Mo52  1  7.97183666  7.93869277  7.91005929  1
