# generated using pymatgen
data_Mo
_symmetry_space_group_name_H-M   'P 1'
_cell_length_a   9.46603830
_cell_length_b   9.46603830
_cell_length_c   9.46603730
_cell_angle_alpha   90.00000000
_cell_angle_beta   90.00000000
_cell_angle_gamma   90.00000000
_symmetry_Int_Tables_number   1
_chemical_formula_structural   Mo
_chemical_formula_sum   Mo53
_cell_volume   848.21261229
_cell_formula_units_Z   53
loop_
 _symmetry_equiv_pos_site_id
 _symmetry_equiv_pos_as_xyz
  1  'x, y, z'
loop_
 _atom_site_type_symbol
 _atom_site_label
 _atom_site_symmetry_multiplicity
 _atom_site_fract_x
 _atom_site_fract_y
 _atom_site_fract_z
 _atom_site_occupancy
  Mo  Mo0  1  1.61639515  1.55453238  1.51922195  1
  Mo  Mo1  1  0.02775606  0.03120689  3.06384627  1
  Mo  Mo2  1  1.65821818  1.56701895  4.69283537  1
  Mo  Mo3  1  0.01222087  0.02296666  6.30155641  1
  Mo  Mo4  1  1.61198623  1.52134347  7.87295909  1
  Mo  Mo5  1  0.00234877  3.09002807  0.00488722  1
  Mo  Mo6  1  1.56076193  4.76056993  1.53271481  1
  Mo  Mo7  1  0.00182021  3.16827923  3.07970188  1
  Mo  Mo8  1  1.54965197  4.68907271  4.77393959  1
  Mo  Mo9  1  -0.00951990  3.17643787  6.33906143  1
  Mo  Mo10  1  1.59866639  4.79184504  7.89523986  1
  Mo  Mo11  1  0.02272412  6.29093720  -0.01862689  1
  Mo  Mo12  1  1.57675293  7.87094132  1.59360958  1
  Mo  Mo13  1  -0.05533887  6.26308958  3.18206292  1
  Mo  Mo14  1  1.53919725  7.83566870  4.68913364  1
  Mo  Mo15  1  -0.01967771  6.30930257  6.28321746  1
  Mo  Mo16  1  1.49674323  7.89777716  7.87268574  1
  Mo  Mo17  1  3.11454918  -0.07193939  0.00782386  1
  Mo  Mo18  1  4.72139791  1.61049860  1.55745387  1
  Mo  Mo19  1  3.16190400  0.05765630  3.19498016  1
  Mo  Mo20  1  4.79791321  1.57646969  4.75993009  1
  Mo  Mo21  1  3.15573657  -0.03438838  6.30778868  1
  Mo  Mo22  1  4.69133968  1.50022362  7.91539625  1
  Mo  Mo23  1  3.13701255  3.10306514  0.02761299  1
  Mo  Mo24  1  4.74637235  4.77355794  1.55899217  1
  Mo  Mo25  1  3.15988572  3.22081327  3.18361751  1
  Mo  Mo26  1  4.74027803  4.72986045  4.74486240  1
  Mo  Mo27  1  3.19269985  3.15894951  6.32568370  1
  Mo  Mo28  1  4.79455435  4.75828869  7.94305628  1
  Mo  Mo29  1  3.15847967  6.26475592  -0.04308820  1
  Mo  Mo30  1  4.65697981  7.97495384  1.58881112  1
  Mo  Mo31  1  3.20402744  6.25990803  3.14941602  1
  Mo  Mo32  1  4.70848943  7.98176931  4.75158184  1
  Mo  Mo33  1  3.15561256  6.24001606  6.24099677  1
  Mo  Mo34  1  4.71154152  7.85505724  7.90879303  1
  Mo  Mo35  1  6.29336938  -0.05636223  -0.05237176  1
  Mo  Mo36  1  7.83789523  1.58353516  1.55556214  1
  Mo  Mo37  1  6.26134220  0.04002890  3.10750200  1
  Mo  Mo38  1  7.95922912  1.49438825  4.72910882  1
  Mo  Mo39  1  6.27843529  0.03786348  6.30874939  1
  Mo  Mo40  1  7.91830190  1.63807012  7.99798012  1
  Mo  Mo41  1  6.27604531  3.17085377  -0.00338834  1
  Mo  Mo42  1  7.92637990  4.78174406  1.57410636  1
  Mo  Mo43  1  6.34233717  3.13875460  3.15897555  1
  Mo  Mo44  1  7.91697542  4.66482355  4.78082853  1
  Mo  Mo45  1  6.26176315  3.14121695  6.32991195  1
  Mo  Mo46  1  7.91356710  4.82064355  7.92077067  1
  Mo  Mo47  1  6.35260996  6.28919946  0.01453866  1
  Mo  Mo48  1  7.83554689  7.94750109  1.58700737  1
  Mo  Mo49  1  6.25325231  6.29835413  3.24295523  1
  Mo  Mo50  1  7.86920991  7.94654909  4.75571319  1
  Mo  Mo51  1  6.30176206  6.29903777  6.31790822  1
  Mo  Mo52  1  7.98835861  7.94912133  7.85824265  1
