# generated using pymatgen
data_Mo
_symmetry_space_group_name_H-M   'P 1'
_cell_length_a   9.46603830
_cell_length_b   9.46603830
_cell_length_c   9.46603730
_cell_angle_alpha   90.00000000
_cell_angle_beta   90.00000000
_cell_angle_gamma   90.00000000
_symmetry_Int_Tables_number   1
_chemical_formula_structural   Mo
_chemical_formula_sum   Mo53
_cell_volume   848.21261229
_cell_formula_units_Z   53
loop_
 _symmetry_equiv_pos_site_id
 _symmetry_equiv_pos_as_xyz
  1  'x, y, z'
loop_
 _atom_site_type_symbol
 _atom_site_label
 _atom_site_symmetry_multiplicity
 _atom_site_fract_x
 _atom_site_fract_y
 _atom_site_fract_z
 _atom_site_occupancy
  Mo  Mo0  1  1.49752336  1.58435475  1.55142017  1
  Mo  Mo1  1  0.00875705  -0.04127743  3.14622079  1
  Mo  Mo2  1  1.53030983  1.53717718  4.76360068  1
  Mo  Mo3  1  -0.00960043  0.00865022  6.34177239  1
  Mo  Mo4  1  1.51125631  1.55084904  7.86172269  1
  Mo  Mo5  1  -0.02021926  3.23334668  0.01964570  1
  Mo  Mo6  1  1.57793068  4.73444502  1.52963166  1
  Mo  Mo7  1  0.04904733  3.12252128  3.18136971  1
  Mo  Mo8  1  1.59675380  4.74705595  4.68254983  1
  Mo  Mo9  1  0.00181839  3.15967608  6.29816662  1
  Mo  Mo10  1  1.55941488  4.69956078  7.83913315  1
  Mo  Mo11  1  0.03189980  6.36869983  0.02370721  1
  Mo  Mo12  1  1.55631485  7.95814780  1.53676667  1
  Mo  Mo13  1  0.04307687  6.25697947  3.15816961  1
  Mo  Mo14  1  1.48423277  7.96076475  4.73681599  1
  Mo  Mo15  1  -0.01899680  6.28077034  6.29015366  1
  Mo  Mo16  1  1.50852288  7.93734127  7.90333639  1
  Mo  Mo17  1  3.10610819  0.02453742  0.02532386  1
  Mo  Mo18  1  4.69372670  1.56019406  1.55784032  1
  Mo  Mo19  1  3.18000661  0.01223536  3.20085196  1
  Mo  Mo20  1  4.72703072  1.56641627  4.72681917  1
  Mo  Mo21  1  3.17365787  0.00397146  6.35407566  1
  Mo  Mo22  1  4.75874389  1.52107813  7.94117582  1
  Mo  Mo23  1  3.14388205  3.20925088  -0.00996502  1
  Mo  Mo24  1  4.75790339  4.72095692  1.58837417  1
  Mo  Mo25  1  3.17263192  3.16134327  3.13951824  1
  Mo  Mo26  1  4.75338476  4.67645096  4.73840724  1
  Mo  Mo27  1  3.18054071  3.14353676  6.30928985  1
  Mo  Mo28  1  4.71876460  4.67675511  7.85532825  1
  Mo  Mo29  1  3.21500598  6.27173158  0.02018220  1
  Mo  Mo30  1  4.75360040  7.90589888  1.59167275  1
  Mo  Mo31  1  3.15850382  6.30647754  3.14720052  1
  Mo  Mo32  1  4.67722124  7.85437564  4.77512336  1
  Mo  Mo33  1  3.13558653  6.30124093  6.31166354  1
  Mo  Mo34  1  4.70770465  7.90257923  7.93905016  1
  Mo  Mo35  1  6.33776376  0.04583621  0.03787926  1
  Mo  Mo36  1  7.91297838  1.52715966  1.53084387  1
  Mo  Mo37  1  6.34184005  -0.04364643  3.16045043  1
  Mo  Mo38  1  7.95475817  1.58551328  4.68104832  1
  Mo  Mo39  1  6.36387289  0.00168560  6.29824812  1
  Mo  Mo40  1  7.89832551  1.51831161  7.83620252  1
  Mo  Mo41  1  6.32968174  3.17708247  0.05191198  1
  Mo  Mo42  1  7.89709826  4.72805817  1.59496447  1
  Mo  Mo43  1  6.32004212  3.16911755  3.18491979  1
  Mo  Mo44  1  7.89369129  4.73254970  4.70168939  1
  Mo  Mo45  1  6.38877291  3.19677411  6.32373283  1
  Mo  Mo46  1  7.92278824  4.74213396  7.91218054  1
  Mo  Mo47  1  6.32592243  6.27496297  -0.00403570  1
  Mo  Mo48  1  7.91341328  7.94482693  1.53358761  1
  Mo  Mo49  1  6.35352227  6.26138601  3.12067414  1
  Mo  Mo50  1  7.82609972  7.93565920  4.72605746  1
  Mo  Mo51  1  6.27885014  6.31985735  6.26994700  1
  Mo  Mo52  1  7.80439401  7.95049479  7.94943858  1
