# generated using pymatgen
data_Mo
_symmetry_space_group_name_H-M   'P 1'
_cell_length_a   9.46603805
_cell_length_b   9.46603785
_cell_length_c   9.46603779
_cell_angle_alpha   90.00000282
_cell_angle_beta   89.99999931
_cell_angle_gamma   89.99999840
_symmetry_Int_Tables_number   1
_chemical_formula_structural   Mo
_chemical_formula_sum   Mo53
_cell_volume   848.21259331
_cell_formula_units_Z   53
loop_
 _symmetry_equiv_pos_site_id
 _symmetry_equiv_pos_as_xyz
  1  'x, y, z'
loop_
 _atom_site_type_symbol
 _atom_site_label
 _atom_site_symmetry_multiplicity
 _atom_site_fract_x
 _atom_site_fract_y
 _atom_site_fract_z
 _atom_site_occupancy
  Mo  Mo0  1  1.51668331  1.61445157  1.49549223  1
  Mo  Mo1  1  -0.08664999  -0.10162782  3.05385920  1
  Mo  Mo2  1  1.68407370  1.53789359  4.69486902  1
  Mo  Mo3  1  -0.00816476  -0.04228688  6.34744588  1
  Mo  Mo4  1  1.55500156  1.63652873  7.85820112  1
  Mo  Mo5  1  -0.12726175  3.22003244  -0.01912105  1
  Mo  Mo6  1  1.59137561  4.75094253  1.58760350  1
  Mo  Mo7  1  -0.04877807  3.01170230  3.13787326  1
  Mo  Mo8  1  1.58564623  4.71635524  4.80526894  1
  Mo  Mo9  1  0.09088887  3.12371108  6.37153492  1
  Mo  Mo10  1  1.67192094  4.76000159  7.93371284  1
  Mo  Mo11  1  0.02229710  6.37929445  0.04507889  1
  Mo  Mo12  1  1.54224027  7.89260425  1.46117170  1
  Mo  Mo13  1  0.04390495  6.22680230  3.13827204  1
  Mo  Mo14  1  1.60395054  7.92582256  4.81767928  1
  Mo  Mo15  1  0.08725809  6.26427033  6.33090614  1
  Mo  Mo16  1  1.47295921  7.93221593  7.95492948  1
  Mo  Mo17  1  3.14103874  0.07336379  -0.05270041  1
  Mo  Mo18  1  4.84461003  1.66344607  1.51966661  1
  Mo  Mo19  1  3.09391352  -0.06568002  3.10869903  1
  Mo  Mo20  1  4.79883917  1.56479873  4.76735272  1
  Mo  Mo21  1  3.11242959  0.05498348  6.26925044  1
  Mo  Mo22  1  4.71752703  1.61744508  7.84254570  1
  Mo  Mo23  1  3.20414548  3.22237850  0.00683075  1
  Mo  Mo24  1  4.70447665  4.78458402  1.54179656  1
  Mo  Mo25  1  3.18341623  3.17113077  3.20162183  1
  Mo  Mo26  1  4.82520933  4.67593416  4.80315463  1
  Mo  Mo27  1  3.13338741  3.14325166  6.25612148  1
  Mo  Mo28  1  4.70726856  4.81841127  7.94951857  1
  Mo  Mo29  1  3.15242204  6.35175313  -0.02226617  1
  Mo  Mo30  1  4.64823978  7.94385108  1.53201881  1
  Mo  Mo31  1  3.18906046  6.30107065  3.19844901  1
  Mo  Mo32  1  4.79780372  7.97792822  4.84810024  1
  Mo  Mo33  1  3.13771443  6.32056318  6.25690867  1
  Mo  Mo34  1  4.69281768  7.83732078  7.97838336  1
  Mo  Mo35  1  6.36806027  0.01693300  0.04637556  1
  Mo  Mo36  1  7.99106986  1.52704946  1.44875820  1
  Mo  Mo37  1  6.25189305  0.00676775  3.14409500  1
  Mo  Mo38  1  7.91874983  1.41684328  4.70956099  1
  Mo  Mo39  1  6.29487618  0.01664613  6.29548380  1
  Mo  Mo40  1  7.86728248  1.53486414  7.90086626  1
  Mo  Mo41  1  6.31194377  3.21783309  -0.13712113  1
  Mo  Mo42  1  7.85826160  4.73880562  1.59716641  1
  Mo  Mo43  1  6.31508646  3.22949219  3.14277885  1
  Mo  Mo44  1  7.87787775  4.63553086  4.78928006  1
  Mo  Mo45  1  6.30082518  3.04110595  6.34585164  1
  Mo  Mo46  1  7.86202047  4.68649569  7.97413807  1
  Mo  Mo47  1  6.28538347  6.31747819  -0.08723000  1
  Mo  Mo48  1  7.76378621  7.91088883  1.61387332  1
  Mo  Mo49  1  6.41101572  6.38785343  3.14774187  1
  Mo  Mo50  1  7.84485677  7.82633184  4.73380586  1
  Mo  Mo51  1  6.32884008  6.25519820  6.34110182  1
  Mo  Mo52  1  7.85236950  7.91448695  7.95909444  1
