# generated using pymatgen
data_Mo
_symmetry_space_group_name_H-M   'P 1'
_cell_length_a   9.46603830
_cell_length_b   9.46603830
_cell_length_c   9.46603730
_cell_angle_alpha   90.00000000
_cell_angle_beta   90.00000000
_cell_angle_gamma   90.00000000
_symmetry_Int_Tables_number   1
_chemical_formula_structural   Mo
_chemical_formula_sum   Mo53
_cell_volume   848.21261229
_cell_formula_units_Z   53
loop_
 _symmetry_equiv_pos_site_id
 _symmetry_equiv_pos_as_xyz
  1  'x, y, z'
loop_
 _atom_site_type_symbol
 _atom_site_label
 _atom_site_symmetry_multiplicity
 _atom_site_fract_x
 _atom_site_fract_y
 _atom_site_fract_z
 _atom_site_occupancy
  Mo  Mo0  1  1.58016251  1.57564603  1.57892206  1
  Mo  Mo1  1  0.00483658  0.06135980  3.16796645  1
  Mo  Mo2  1  1.55730397  1.53159835  4.70453638  1
  Mo  Mo3  1  -0.01466045  0.00152155  6.34959387  1
  Mo  Mo4  1  1.51783852  1.52967209  7.91781851  1
  Mo  Mo5  1  0.01687863  3.08079818  0.01498230  1
  Mo  Mo6  1  1.57815091  4.73853363  1.52282793  1
  Mo  Mo7  1  -0.02286235  3.22818654  3.18121895  1
  Mo  Mo8  1  1.60128204  4.76141239  4.77262587  1
  Mo  Mo9  1  0.01098573  3.19600221  6.31909617  1
  Mo  Mo10  1  1.53458176  4.76966180  7.94136361  1
  Mo  Mo11  1  -0.01858792  6.24176390  -0.04927120  1
  Mo  Mo12  1  1.58494789  7.90613460  1.56051467  1
  Mo  Mo13  1  -0.00414495  6.35546375  3.12977875  1
  Mo  Mo14  1  1.58667924  7.86057678  4.75976468  1
  Mo  Mo15  1  0.03574997  6.36882531  6.31925316  1
  Mo  Mo16  1  1.57413286  7.92140340  7.97308762  1
  Mo  Mo17  1  3.18377683  0.04906848  -0.00247281  1
  Mo  Mo18  1  4.80644657  1.54326742  1.52310419  1
  Mo  Mo19  1  3.12710035  -0.02900085  3.15750807  1
  Mo  Mo20  1  4.73998841  1.52003201  4.67545839  1
  Mo  Mo21  1  3.11646320  -0.00788338  6.34938134  1
  Mo  Mo22  1  4.70086699  1.58285435  7.84492795  1
  Mo  Mo23  1  3.14144788  3.16868414  -0.00215808  1
  Mo  Mo24  1  4.70195624  4.73189715  1.54345581  1
  Mo  Mo25  1  3.12767185  3.16169079  3.17034884  1
  Mo  Mo26  1  4.70577205  4.76527763  4.69559240  1
  Mo  Mo27  1  3.18489665  3.19548650  6.25673928  1
  Mo  Mo28  1  4.70794076  4.76191597  7.91872522  1
  Mo  Mo29  1  3.12199330  6.36335092  -0.00865992  1
  Mo  Mo30  1  4.73178382  7.95180465  1.57153344  1
  Mo  Mo31  1  3.22249800  6.28687433  3.14512694  1
  Mo  Mo32  1  4.73576971  7.91534931  4.74527711  1
  Mo  Mo33  1  3.19135462  6.31197164  6.30062520  1
  Mo  Mo34  1  4.73503559  7.95443259  7.96081417  1
  Mo  Mo35  1  6.33452087  -0.00153825  -0.04249966  1
  Mo  Mo36  1  7.98893398  1.55235466  1.57660760  1
  Mo  Mo37  1  6.27498831  -0.01805998  3.10819161  1
  Mo  Mo38  1  7.87854048  1.50982081  4.77203313  1
  Mo  Mo39  1  6.26538703  -0.03917878  6.30021611  1
  Mo  Mo40  1  7.92452763  1.54768759  7.95523064  1
  Mo  Mo41  1  6.27635033  3.11579589  -0.06220871  1
  Mo  Mo42  1  7.95193940  4.71245824  1.54528807  1
  Mo  Mo43  1  6.31912280  3.13459118  3.14893387  1
  Mo  Mo44  1  7.93174986  4.77066623  4.76075771  1
  Mo  Mo45  1  6.23616022  3.14579696  6.23209230  1
  Mo  Mo46  1  7.83997170  4.70755759  7.93032289  1
  Mo  Mo47  1  6.27978362  6.27591171  0.01378077  1
  Mo  Mo48  1  7.93540224  7.90280383  1.56894699  1
  Mo  Mo49  1  6.26978448  6.29369611  3.16080846  1
  Mo  Mo50  1  7.94656831  7.90238634  4.76872986  1
  Mo  Mo51  1  6.30677231  6.28702543  6.34318083  1
  Mo  Mo52  1  7.91932025  7.83044712  7.89603580  1
