# generated using pymatgen
data_Mo
_symmetry_space_group_name_H-M   'P 1'
_cell_length_a   9.46603830
_cell_length_b   9.46603830
_cell_length_c   9.46603730
_cell_angle_alpha   90.00000000
_cell_angle_beta   90.00000000
_cell_angle_gamma   90.00000000
_symmetry_Int_Tables_number   1
_chemical_formula_structural   Mo
_chemical_formula_sum   Mo53
_cell_volume   848.21261229
_cell_formula_units_Z   53
loop_
 _symmetry_equiv_pos_site_id
 _symmetry_equiv_pos_as_xyz
  1  'x, y, z'
loop_
 _atom_site_type_symbol
 _atom_site_label
 _atom_site_symmetry_multiplicity
 _atom_site_fract_x
 _atom_site_fract_y
 _atom_site_fract_z
 _atom_site_occupancy
  Mo  Mo0  1  1.67837111  1.56306081  1.60283534  1
  Mo  Mo1  1  -0.01632538  0.01391087  3.10508135  1
  Mo  Mo2  1  1.53874965  1.60591357  4.78984230  1
  Mo  Mo3  1  0.04415161  0.03924321  6.33077607  1
  Mo  Mo4  1  1.63007102  1.58842302  7.86766393  1
  Mo  Mo5  1  0.00099482  3.07277712  0.03403858  1
  Mo  Mo6  1  1.56977616  4.70201605  1.55769951  1
  Mo  Mo7  1  -0.02483335  3.17457089  3.16089933  1
  Mo  Mo8  1  1.54334587  4.73564237  4.76069496  1
  Mo  Mo9  1  -0.09710990  3.11008988  6.33908751  1
  Mo  Mo10  1  1.54884672  4.73338830  7.91091155  1
  Mo  Mo11  1  -0.02852978  6.37689023  0.03909591  1
  Mo  Mo12  1  1.57581172  7.85051975  1.55836686  1
  Mo  Mo13  1  -0.08003301  6.31227363  3.18681243  1
  Mo  Mo14  1  1.62077357  7.86498649  4.66182695  1
  Mo  Mo15  1  0.01700370  6.25709463  6.27837095  1
  Mo  Mo16  1  1.51028977  7.94771895  7.90247203  1
  Mo  Mo17  1  3.09951010  -0.04649846  0.01019908  1
  Mo  Mo18  1  4.77088583  1.62146602  1.51436015  1
  Mo  Mo19  1  3.15939415  0.03871460  3.18490234  1
  Mo  Mo20  1  4.70873800  1.60182296  4.67498043  1
  Mo  Mo21  1  3.17480312  -0.02396484  6.23430703  1
  Mo  Mo22  1  4.72051338  1.59911590  7.87599321  1
  Mo  Mo23  1  3.19548639  3.13235380  -0.00091609  1
  Mo  Mo24  1  4.79612577  4.76059506  1.57832343  1
  Mo  Mo25  1  3.15627292  3.19221500  3.13318694  1
  Mo  Mo26  1  4.79286025  4.67300025  4.73677233  1
  Mo  Mo27  1  3.10032581  3.15814951  6.31606538  1
  Mo  Mo28  1  4.70714171  4.78983097  7.89746062  1
  Mo  Mo29  1  3.12838647  6.28928770  0.04837150  1
  Mo  Mo30  1  4.73698695  7.87595727  1.58871914  1
  Mo  Mo31  1  3.11642757  6.27967902  3.14617867  1
  Mo  Mo32  1  4.77254469  7.86772942  4.76970488  1
  Mo  Mo33  1  3.17788863  6.31195069  6.25643245  1
  Mo  Mo34  1  4.74071607  7.89852934  7.91279532  1
  Mo  Mo35  1  6.35142798  -0.02056787  -0.04669459  1
  Mo  Mo36  1  7.86402178  1.54880307  1.55677740  1
  Mo  Mo37  1  6.25669102  0.04046161  3.12586555  1
  Mo  Mo38  1  7.93597114  1.61646382  4.74434967  1
  Mo  Mo39  1  6.34631444  0.03739153  6.27336693  1
  Mo  Mo40  1  7.90448090  1.57026909  7.95499793  1
  Mo  Mo41  1  6.31549788  3.14710857  -0.04180546  1
  Mo  Mo42  1  7.90557347  4.71898285  1.60421577  1
  Mo  Mo43  1  6.29425966  3.18287884  3.12996275  1
  Mo  Mo44  1  7.87830967  4.67770440  4.75498330  1
  Mo  Mo45  1  6.22593731  3.13265499  6.29943456  1
  Mo  Mo46  1  7.91499237  4.69941812  7.91843859  1
  Mo  Mo47  1  6.28344781  6.30949360  -0.00088402  1
  Mo  Mo48  1  7.92442452  7.86498036  1.63787389  1
  Mo  Mo49  1  6.28870908  6.32242546  3.18232332  1
  Mo  Mo50  1  7.95203318  7.95845573  4.77722159  1
  Mo  Mo51  1  6.29978080  6.32752350  6.26220793  1
  Mo  Mo52  1  7.95762644  7.88295493  7.88890811  1
