# generated using pymatgen
data_Mo
_symmetry_space_group_name_H-M   'P 1'
_cell_length_a   9.46603830
_cell_length_b   9.46603830
_cell_length_c   9.46603730
_cell_angle_alpha   90.00000000
_cell_angle_beta   90.00000000
_cell_angle_gamma   90.00000000
_symmetry_Int_Tables_number   1
_chemical_formula_structural   Mo
_chemical_formula_sum   Mo53
_cell_volume   848.21261229
_cell_formula_units_Z   53
loop_
 _symmetry_equiv_pos_site_id
 _symmetry_equiv_pos_as_xyz
  1  'x, y, z'
loop_
 _atom_site_type_symbol
 _atom_site_label
 _atom_site_symmetry_multiplicity
 _atom_site_fract_x
 _atom_site_fract_y
 _atom_site_fract_z
 _atom_site_occupancy
  Mo  Mo0  1  1.64246271  1.55966595  1.58063964  1
  Mo  Mo1  1  -0.02691040  -0.01959588  3.08377625  1
  Mo  Mo2  1  1.56276694  1.60538967  4.75345545  1
  Mo  Mo3  1  0.04127658  -0.01411085  6.33222727  1
  Mo  Mo4  1  1.63845552  1.62455085  7.89639674  1
  Mo  Mo5  1  -0.00432631  3.10107837  0.01270580  1
  Mo  Mo6  1  1.57135088  4.72766326  1.57036428  1
  Mo  Mo7  1  -0.04746270  3.10622068  3.17236176  1
  Mo  Mo8  1  1.51640620  4.68012188  4.69969629  1
  Mo  Mo9  1  -0.04089276  3.13392317  6.35034555  1
  Mo  Mo10  1  1.51146430  4.72872933  7.88448343  1
  Mo  Mo11  1  -0.01715599  6.42694513  0.03213559  1
  Mo  Mo12  1  1.55831477  7.86033745  1.54044602  1
  Mo  Mo13  1  -0.04158283  6.28731953  3.16647386  1
  Mo  Mo14  1  1.59255760  7.92546815  4.71838336  1
  Mo  Mo15  1  -0.01843689  6.25631420  6.28644423  1
  Mo  Mo16  1  1.52465152  7.89846967  7.87173434  1
  Mo  Mo17  1  3.08384589  -0.05458575  0.00882906  1
  Mo  Mo18  1  4.72202219  1.56200462  1.55057039  1
  Mo  Mo19  1  3.17931987  0.00161969  3.15429635  1
  Mo  Mo20  1  4.71096071  1.59870336  4.75804228  1
  Mo  Mo21  1  3.24778744  -0.00989097  6.24915031  1
  Mo  Mo22  1  4.76910995  1.56721601  7.87761694  1
  Mo  Mo23  1  3.19282826  3.16839866  -0.01686098  1
  Mo  Mo24  1  4.79812851  4.73120109  1.55933409  1
  Mo  Mo25  1  3.18257724  3.15825851  3.14838411  1
  Mo  Mo26  1  4.72393876  4.71059981  4.75449111  1
  Mo  Mo27  1  3.08218516  3.14194799  6.32730082  1
  Mo  Mo28  1  4.73020173  4.74791207  7.87970628  1
  Mo  Mo29  1  3.13662577  6.28465431  0.01549943  1
  Mo  Mo30  1  4.74160590  7.84337804  1.58618041  1
  Mo  Mo31  1  3.08959578  6.31680432  3.20578065  1
  Mo  Mo32  1  4.77207528  7.89473296  4.70210747  1
  Mo  Mo33  1  3.12381412  6.30321736  6.30984785  1
  Mo  Mo34  1  4.70125208  7.90429633  7.89055175  1
  Mo  Mo35  1  6.34672396  -0.04143795  0.01615648  1
  Mo  Mo36  1  7.88998924  1.55204182  1.54225951  1
  Mo  Mo37  1  6.27770956  0.06220790  3.18293273  1
  Mo  Mo38  1  7.88067299  1.64047969  4.69425292  1
  Mo  Mo39  1  6.35056226  0.07708988  6.26315237  1
  Mo  Mo40  1  7.87140776  1.56489246  7.89845543  1
  Mo  Mo41  1  6.35360531  3.19433242  -0.00307111  1
  Mo  Mo42  1  7.92312215  4.70790136  1.60157386  1
  Mo  Mo43  1  6.27426760  3.16928433  3.12612821  1
  Mo  Mo44  1  7.86778088  4.70485952  4.76287103  1
  Mo  Mo45  1  6.32079408  3.14407660  6.36687059  1
  Mo  Mo46  1  7.93322101  4.73997957  7.93881871  1
  Mo  Mo47  1  6.31900930  6.34609757  -0.03672191  1
  Mo  Mo48  1  7.89439971  7.86575499  1.62837399  1
  Mo  Mo49  1  6.33506655  6.36350617  3.18284621  1
  Mo  Mo50  1  7.93531245  7.91057012  4.71815274  1
  Mo  Mo51  1  6.34017935  6.29976436  6.29399608  1
  Mo  Mo52  1  7.92122366  7.92549688  7.89590957  1
