# generated using pymatgen
data_Mo
_symmetry_space_group_name_H-M   'P 1'
_cell_length_a   9.46603830
_cell_length_b   9.46603830
_cell_length_c   9.46603730
_cell_angle_alpha   90.00000000
_cell_angle_beta   90.00000000
_cell_angle_gamma   90.00000000
_symmetry_Int_Tables_number   1
_chemical_formula_structural   Mo
_chemical_formula_sum   Mo53
_cell_volume   848.21261229
_cell_formula_units_Z   53
loop_
 _symmetry_equiv_pos_site_id
 _symmetry_equiv_pos_as_xyz
  1  'x, y, z'
loop_
 _atom_site_type_symbol
 _atom_site_label
 _atom_site_symmetry_multiplicity
 _atom_site_fract_x
 _atom_site_fract_y
 _atom_site_fract_z
 _atom_site_occupancy
  Mo  Mo0  1  1.55647754  1.56479122  1.53235128  1
  Mo  Mo1  1  -0.00342164  -0.01669584  3.10734686  1
  Mo  Mo2  1  1.56095753  1.55266855  4.67035450  1
  Mo  Mo3  1  0.02502530  -0.03943830  6.31963698  1
  Mo  Mo4  1  1.58793204  1.60872405  7.91306077  1
  Mo  Mo5  1  0.02582362  3.13963814  0.01161948  1
  Mo  Mo6  1  1.58505470  4.74855399  1.54955758  1
  Mo  Mo7  1  -0.04194113  3.07191458  3.15508033  1
  Mo  Mo8  1  1.51546171  4.67283537  4.66988059  1
  Mo  Mo9  1  0.04069401  3.14667806  6.33117706  1
  Mo  Mo10  1  1.49455898  4.75354569  7.88881100  1
  Mo  Mo11  1  -0.00216548  6.39373090  -0.00815958  1
  Mo  Mo12  1  1.55853393  7.90031059  1.54297215  1
  Mo  Mo13  1  0.01987403  6.27567055  3.15534642  1
  Mo  Mo14  1  1.54198818  7.96163942  4.77948930  1
  Mo  Mo15  1  -0.04324972  6.31256823  6.31101328  1
  Mo  Mo16  1  1.56975641  7.85612571  7.85395699  1
  Mo  Mo17  1  3.12586273  -0.02499837  -0.00701540  1
  Mo  Mo18  1  4.69866709  1.48625602  1.57035472  1
  Mo  Mo19  1  3.17042486  -0.04324711  3.14067594  1
  Mo  Mo20  1  4.73755201  1.60967350  4.79991049  1
  Mo  Mo21  1  3.25918705  -0.00185863  6.33519769  1
  Mo  Mo22  1  4.78070963  1.53522430  7.92906845  1
  Mo  Mo23  1  3.19343059  3.19294590  -0.00692445  1
  Mo  Mo24  1  4.75137464  4.71068826  1.53909663  1
  Mo  Mo25  1  3.17626771  3.14217258  3.18113256  1
  Mo  Mo26  1  4.64536037  4.78171256  4.75755394  1
  Mo  Mo27  1  3.15849652  3.15866683  6.31811991  1
  Mo  Mo28  1  4.75251797  4.70046912  7.87914682  1
  Mo  Mo29  1  3.14419671  6.29968890  -0.02452099  1
  Mo  Mo30  1  4.71849618  7.84124074  1.55242167  1
  Mo  Mo31  1  3.13819497  6.31802067  3.23582194  1
  Mo  Mo32  1  4.75599637  7.92540114  4.68453469  1
  Mo  Mo33  1  3.10009801  6.28414460  6.34316814  1
  Mo  Mo34  1  4.68180520  7.89780647  7.87015997  1
  Mo  Mo35  1  6.31625882  -0.01223002  0.05131800  1
  Mo  Mo36  1  7.93453479  1.54546505  1.54801483  1
  Mo  Mo37  1  6.31184716  0.05342238  3.19523612  1
  Mo  Mo38  1  7.84132619  1.56748112  4.68844527  1
  Mo  Mo39  1  6.34783889  0.03634523  6.28270592  1
  Mo  Mo40  1  7.85934210  1.55977356  7.87062791  1
  Mo  Mo41  1  6.35322800  3.20501864  0.02954995  1
  Mo  Mo42  1  7.96395903  4.70724861  1.56690832  1
  Mo  Mo43  1  6.26037603  3.17122021  3.17204004  1
  Mo  Mo44  1  7.87348075  4.74117895  4.74935694  1
  Mo  Mo45  1  6.36802361  3.20015375  6.36817793  1
  Mo  Mo46  1  7.91461144  4.78889012  7.96279381  1
  Mo  Mo47  1  6.33943413  6.36575937  -0.04363485  1
  Mo  Mo48  1  7.86572242  7.88890811  1.58592267  1
  Mo  Mo49  1  6.32260464  6.33432086  3.18091853  1
  Mo  Mo50  1  7.93218171  7.86810128  4.68742839  1
  Mo  Mo51  1  6.33143919  6.29743181  6.33136816  1
  Mo  Mo52  1  7.86965407  7.95009914  7.87727996  1
