# generated using pymatgen
data_Mo
_symmetry_space_group_name_H-M   'P 1'
_cell_length_a   9.46603830
_cell_length_b   9.46603830
_cell_length_c   9.46603730
_cell_angle_alpha   90.00000000
_cell_angle_beta   90.00000000
_cell_angle_gamma   90.00000000
_symmetry_Int_Tables_number   1
_chemical_formula_structural   Mo
_chemical_formula_sum   Mo53
_cell_volume   848.21261229
_cell_formula_units_Z   53
loop_
 _symmetry_equiv_pos_site_id
 _symmetry_equiv_pos_as_xyz
  1  'x, y, z'
loop_
 _atom_site_type_symbol
 _atom_site_label
 _atom_site_symmetry_multiplicity
 _atom_site_fract_x
 _atom_site_fract_y
 _atom_site_fract_z
 _atom_site_occupancy
  Mo  Mo0  1  1.45635446  1.52102752  1.45471973  1
  Mo  Mo1  1  0.01338058  -0.03945272  3.13027568  1
  Mo  Mo2  1  1.53132776  1.53115653  4.67905979  1
  Mo  Mo3  1  0.01070780  0.01901806  6.35807637  1
  Mo  Mo4  1  1.48100239  1.55600329  7.86049676  1
  Mo  Mo5  1  0.03291825  3.17399392  -0.04676861  1
  Mo  Mo6  1  1.62212352  4.73476879  1.49808507  1
  Mo  Mo7  1  0.05459116  3.19715949  3.12600151  1
  Mo  Mo8  1  1.56687388  4.78071939  4.75010073  1
  Mo  Mo9  1  0.05963523  3.14020635  6.23110581  1
  Mo  Mo10  1  1.55393585  4.73545090  7.87170288  1
  Mo  Mo11  1  0.01050850  6.34560130  0.00818446  1
  Mo  Mo12  1  1.59743709  7.93506238  1.52902174  1
  Mo  Mo13  1  0.03358248  6.30947085  3.18507386  1
  Mo  Mo14  1  1.56475777  7.89298561  4.71483246  1
  Mo  Mo15  1  -0.00654734  6.31283598  6.34321051  1
  Mo  Mo16  1  1.54213949  7.95515351  7.90742207  1
  Mo  Mo17  1  3.12953367  0.00874821  0.01716933  1
  Mo  Mo18  1  4.70214473  1.54185091  1.63588458  1
  Mo  Mo19  1  3.13859074  0.01923329  3.22935157  1
  Mo  Mo20  1  4.73419901  1.56117422  4.73465382  1
  Mo  Mo21  1  3.14588181  0.02592984  6.38393950  1
  Mo  Mo22  1  4.70323535  1.56554529  8.00684858  1
  Mo  Mo23  1  3.18675884  3.10976928  0.04168688  1
  Mo  Mo24  1  4.71717374  4.71099659  1.58849807  1
  Mo  Mo25  1  3.13587585  3.16360507  3.16884784  1
  Mo  Mo26  1  4.73844235  4.76716099  4.73398112  1
  Mo  Mo27  1  3.25010606  3.16599022  6.31624645  1
  Mo  Mo28  1  4.72916113  4.73111846  7.93939973  1
  Mo  Mo29  1  3.18316426  6.28695650  0.00880498  1
  Mo  Mo30  1  4.71239263  7.90853924  1.48325805  1
  Mo  Mo31  1  3.19629494  6.31754080  3.11709333  1
  Mo  Mo32  1  4.70148388  7.92480968  4.76706119  1
  Mo  Mo33  1  3.16836706  6.30172655  6.30038474  1
  Mo  Mo34  1  4.76065627  7.89013514  7.87866859  1
  Mo  Mo35  1  6.34260558  0.04544180  -0.01836556  1
  Mo  Mo36  1  7.91101086  1.51865699  1.56942585  1
  Mo  Mo37  1  6.29151113  -0.04963601  3.12787399  1
  Mo  Mo38  1  7.90339187  1.43881212  4.76453783  1
  Mo  Mo39  1  6.32468469  -0.03699384  6.33207116  1
  Mo  Mo40  1  7.87813594  1.58738140  7.92001941  1
  Mo  Mo41  1  6.33024191  3.15077990  0.04993227  1
  Mo  Mo42  1  7.96087911  4.73671262  1.55278655  1
  Mo  Mo43  1  6.31375832  3.18991858  3.24167931  1
  Mo  Mo44  1  7.91545935  4.72499206  4.70298801  1
  Mo  Mo45  1  6.32714329  3.22676703  6.27456114  1
  Mo  Mo46  1  7.85830022  4.76242276  7.91796402  1
  Mo  Mo47  1  6.26951641  6.30411713  0.03247063  1
  Mo  Mo48  1  7.91797145  7.89049027  1.50479961  1
  Mo  Mo49  1  6.26987778  6.24355797  3.12345996  1
  Mo  Mo50  1  7.89715239  7.86658893  4.72423200  1
  Mo  Mo51  1  6.23132478  6.33914386  6.27313203  1
  Mo  Mo52  1  7.88470531  7.94471164  7.93990823  1
