# generated using pymatgen
data_Mo
_symmetry_space_group_name_H-M   'P 1'
_cell_length_a   9.46603830
_cell_length_b   9.46603830
_cell_length_c   9.46603730
_cell_angle_alpha   90.00000000
_cell_angle_beta   90.00000000
_cell_angle_gamma   90.00000000
_symmetry_Int_Tables_number   1
_chemical_formula_structural   Mo
_chemical_formula_sum   Mo53
_cell_volume   848.21261229
_cell_formula_units_Z   53
loop_
 _symmetry_equiv_pos_site_id
 _symmetry_equiv_pos_as_xyz
  1  'x, y, z'
loop_
 _atom_site_type_symbol
 _atom_site_label
 _atom_site_symmetry_multiplicity
 _atom_site_fract_x
 _atom_site_fract_y
 _atom_site_fract_z
 _atom_site_occupancy
  Mo  Mo0  1  1.53098374  1.52691041  1.60025196  1
  Mo  Mo1  1  -0.06519320  -0.00543890  3.11462500  1
  Mo  Mo2  1  1.51529437  1.66866994  4.79414223  1
  Mo  Mo3  1  -0.04163496  -0.05468766  6.33692345  1
  Mo  Mo4  1  1.53140727  1.60360023  7.92188417  1
  Mo  Mo5  1  -0.05807822  3.12461650  -0.07201431  1
  Mo  Mo6  1  1.57012518  4.69335931  1.52563554  1
  Mo  Mo7  1  0.03885292  3.22904099  3.10735189  1
  Mo  Mo8  1  1.66359165  4.78902543  4.69653389  1
  Mo  Mo9  1  -0.04837312  3.19071066  6.25034219  1
  Mo  Mo10  1  1.55657604  4.73553034  7.86173932  1
  Mo  Mo11  1  0.00289246  6.29098541  0.02109184  1
  Mo  Mo12  1  1.60625976  7.88804616  1.53922151  1
  Mo  Mo13  1  -0.04465516  6.34683838  3.18710512  1
  Mo  Mo14  1  1.59411719  7.95614244  4.72376372  1
  Mo  Mo15  1  0.01401275  6.25125482  6.34728589  1
  Mo  Mo16  1  1.52632613  7.96124094  7.92133011  1
  Mo  Mo17  1  3.10802359  -0.00531422  0.02054657  1
  Mo  Mo18  1  4.73635321  1.57137486  1.63541536  1
  Mo  Mo19  1  3.09698062  0.03463682  3.14974897  1
  Mo  Mo20  1  4.70550295  1.53012140  4.79471414  1
  Mo  Mo21  1  3.15650685  -0.01930107  6.25847629  1
  Mo  Mo22  1  4.71176007  1.61757141  7.91958016  1
  Mo  Mo23  1  3.11845274  3.09782371  -0.01150375  1
  Mo  Mo24  1  4.78704334  4.69981191  1.59904798  1
  Mo  Mo25  1  3.18553105  3.18833206  3.17203844  1
  Mo  Mo26  1  4.81572544  4.65412100  4.71893798  1
  Mo  Mo27  1  3.10215831  3.16391436  6.28218039  1
  Mo  Mo28  1  4.69900157  4.75562078  7.91809287  1
  Mo  Mo29  1  3.15209530  6.24521036  0.00832178  1
  Mo  Mo30  1  4.79284197  7.94664813  1.55305734  1
  Mo  Mo31  1  3.14013593  6.31976662  3.12739905  1
  Mo  Mo32  1  4.75011344  7.86989473  4.66533159  1
  Mo  Mo33  1  3.19873700  6.35666197  6.32141902  1
  Mo  Mo34  1  4.74880269  8.00866522  7.92211482  1
  Mo  Mo35  1  6.35459839  0.00079990  -0.02103532  1
  Mo  Mo36  1  7.88168207  1.56496188  1.64330090  1
  Mo  Mo37  1  6.24916630  -0.00471713  3.13650111  1
  Mo  Mo38  1  7.92929038  1.52435237  4.72816468  1
  Mo  Mo39  1  6.29257981  0.01846123  6.26430378  1
  Mo  Mo40  1  7.88939611  1.57848139  7.92104439  1
  Mo  Mo41  1  6.28449237  3.20710431  -0.02951744  1
  Mo  Mo42  1  7.92105130  4.73998066  1.60419051  1
  Mo  Mo43  1  6.38406296  3.08692751  3.10436636  1
  Mo  Mo44  1  7.93485091  4.71752338  4.77609784  1
  Mo  Mo45  1  6.28435125  3.07146489  6.30831680  1
  Mo  Mo46  1  7.85488283  4.72061945  7.90377613  1
  Mo  Mo47  1  6.28689541  6.29927064  -0.03287085  1
  Mo  Mo48  1  7.95698136  7.87069723  1.53655086  1
  Mo  Mo49  1  6.33361623  6.35546393  3.14891525  1
  Mo  Mo50  1  7.91605865  7.86424345  4.79118173  1
  Mo  Mo51  1  6.34775572  6.26592997  6.29693652  1
  Mo  Mo52  1  7.98587859  7.87288615  7.97349984  1
