# generated using pymatgen
data_Mo
_symmetry_space_group_name_H-M   'P 1'
_cell_length_a   9.46603830
_cell_length_b   9.46603830
_cell_length_c   9.46603730
_cell_angle_alpha   90.00000000
_cell_angle_beta   90.00000000
_cell_angle_gamma   90.00000000
_symmetry_Int_Tables_number   1
_chemical_formula_structural   Mo
_chemical_formula_sum   Mo53
_cell_volume   848.21261229
_cell_formula_units_Z   53
loop_
 _symmetry_equiv_pos_site_id
 _symmetry_equiv_pos_as_xyz
  1  'x, y, z'
loop_
 _atom_site_type_symbol
 _atom_site_label
 _atom_site_symmetry_multiplicity
 _atom_site_fract_x
 _atom_site_fract_y
 _atom_site_fract_z
 _atom_site_occupancy
  Mo  Mo0  1  1.57056091  1.59311820  1.58839970  1
  Mo  Mo1  1  -0.00907439  0.07820492  3.15723343  1
  Mo  Mo2  1  1.52112505  1.60998040  4.70975776  1
  Mo  Mo3  1  0.02241465  0.02618995  6.34290519  1
  Mo  Mo4  1  1.54773645  1.60863534  7.94352382  1
  Mo  Mo5  1  0.00348334  3.07138408  0.06639084  1
  Mo  Mo6  1  1.59565490  4.71922314  1.56921539  1
  Mo  Mo7  1  -0.04381358  3.17232411  3.17224934  1
  Mo  Mo8  1  1.53367351  4.77536606  4.70519643  1
  Mo  Mo9  1  0.00780014  3.13298708  6.33173934  1
  Mo  Mo10  1  1.48152564  4.74960123  7.92159261  1
  Mo  Mo11  1  -0.01727806  6.30407223  -0.00270152  1
  Mo  Mo12  1  1.59381220  7.87204418  1.60665767  1
  Mo  Mo13  1  0.01671152  6.32342442  3.15289649  1
  Mo  Mo14  1  1.55333186  8.01030605  4.74860607  1
  Mo  Mo15  1  0.01904623  6.30420172  6.29413698  1
  Mo  Mo16  1  1.67504151  7.86965723  7.86225496  1
  Mo  Mo17  1  3.14171278  -0.02584676  -0.00549067  1
  Mo  Mo18  1  4.72858949  1.48205877  1.51586447  1
  Mo  Mo19  1  3.09516385  -0.04944237  3.14350307  1
  Mo  Mo20  1  4.70792832  1.58933536  4.71127590  1
  Mo  Mo21  1  3.17111255  -0.01274880  6.33559315  1
  Mo  Mo22  1  4.70871995  1.56790854  7.94037963  1
  Mo  Mo23  1  3.15959413  3.17869367  -0.01048507  1
  Mo  Mo24  1  4.73440987  4.75627184  1.51302419  1
  Mo  Mo25  1  3.21058132  3.14207923  3.14447260  1
  Mo  Mo26  1  4.73165668  4.76402416  4.74308507  1
  Mo  Mo27  1  3.13951099  3.18626094  6.30162837  1
  Mo  Mo28  1  4.69408026  4.76862979  7.84188554  1
  Mo  Mo29  1  3.14049098  6.29534603  -0.01811571  1
  Mo  Mo30  1  4.73309945  7.83130757  1.52260008  1
  Mo  Mo31  1  3.21176414  6.26815823  3.18354241  1
  Mo  Mo32  1  4.78102318  7.90228761  4.74369871  1
  Mo  Mo33  1  3.17169013  6.29018275  6.25543024  1
  Mo  Mo34  1  4.76164217  7.93442655  7.83658875  1
  Mo  Mo35  1  6.35125672  0.03571646  -0.00351042  1
  Mo  Mo36  1  7.94091362  1.54229038  1.53887417  1
  Mo  Mo37  1  6.29127648  0.03729586  3.16289908  1
  Mo  Mo38  1  7.85681505  1.57484301  4.76569450  1
  Mo  Mo39  1  6.34441510  -0.10696242  6.26558017  1
  Mo  Mo40  1  7.85990591  1.49900719  7.91242348  1
  Mo  Mo41  1  6.27296481  3.17213968  -0.07560548  1
  Mo  Mo42  1  7.93689778  4.71539439  1.58286557  1
  Mo  Mo43  1  6.24473352  3.21691534  3.14524030  1
  Mo  Mo44  1  7.89920605  4.70663770  4.75659658  1
  Mo  Mo45  1  6.29085139  3.15146011  6.29229474  1
  Mo  Mo46  1  7.88468523  4.72068658  7.97443232  1
  Mo  Mo47  1  6.29834325  6.39101200  -0.02707230  1
  Mo  Mo48  1  7.91074790  7.91673558  1.63115087  1
  Mo  Mo49  1  6.31649845  6.25872501  3.19629801  1
  Mo  Mo50  1  7.96174361  7.88228365  4.74627498  1
  Mo  Mo51  1  6.29888357  6.25888836  6.33394293  1
  Mo  Mo52  1  7.93120101  7.92313425  7.91894091  1
