# generated using pymatgen
data_Mo
_symmetry_space_group_name_H-M   'P 1'
_cell_length_a   9.46603830
_cell_length_b   9.46603830
_cell_length_c   9.46603730
_cell_angle_alpha   90.00000000
_cell_angle_beta   90.00000000
_cell_angle_gamma   90.00000000
_symmetry_Int_Tables_number   1
_chemical_formula_structural   Mo
_chemical_formula_sum   Mo53
_cell_volume   848.21261229
_cell_formula_units_Z   53
loop_
 _symmetry_equiv_pos_site_id
 _symmetry_equiv_pos_as_xyz
  1  'x, y, z'
loop_
 _atom_site_type_symbol
 _atom_site_label
 _atom_site_symmetry_multiplicity
 _atom_site_fract_x
 _atom_site_fract_y
 _atom_site_fract_z
 _atom_site_occupancy
  Mo  Mo0  1  1.56208129  1.57865667  1.50374217  1
  Mo  Mo1  1  0.01680530  0.03310840  3.12976901  1
  Mo  Mo2  1  1.54803445  1.58789159  4.70960682  1
  Mo  Mo3  1  0.08034487  0.04955788  6.39820668  1
  Mo  Mo4  1  1.55490003  1.58874722  7.91216842  1
  Mo  Mo5  1  0.02859888  3.10090082  0.05309105  1
  Mo  Mo6  1  1.60443354  4.74140746  1.56878320  1
  Mo  Mo7  1  -0.01838400  3.18552226  3.20004322  1
  Mo  Mo8  1  1.48097207  4.74755506  4.76452365  1
  Mo  Mo9  1  0.04329296  3.10825284  6.35204410  1
  Mo  Mo10  1  1.48492009  4.72309220  7.90217569  1
  Mo  Mo11  1  -0.02624483  6.39809872  0.04176008  1
  Mo  Mo12  1  1.57510433  7.87526641  1.57289996  1
  Mo  Mo13  1  0.03261914  6.31956695  3.16527346  1
  Mo  Mo14  1  1.57677577  7.93042417  4.69860699  1
  Mo  Mo15  1  -0.00280554  6.30795844  6.30414364  1
  Mo  Mo16  1  1.63461683  7.87329853  7.82762956  1
  Mo  Mo17  1  3.12593597  -0.05123881  0.02212290  1
  Mo  Mo18  1  4.72606681  1.50023550  1.51729407  1
  Mo  Mo19  1  3.19325306  -0.03992425  3.22473572  1
  Mo  Mo20  1  4.70453537  1.54680986  4.66950897  1
  Mo  Mo21  1  3.20468304  0.03731682  6.34817847  1
  Mo  Mo22  1  4.71318521  1.55990364  7.90305855  1
  Mo  Mo23  1  3.21531659  3.18665884  0.00990798  1
  Mo  Mo24  1  4.72916858  4.75041617  1.49163163  1
  Mo  Mo25  1  3.16145410  3.13272364  3.13556690  1
  Mo  Mo26  1  4.67401712  4.78004697  4.73994022  1
  Mo  Mo27  1  3.19194995  3.15674024  6.30709905  1
  Mo  Mo28  1  4.70409509  4.76407224  7.88134882  1
  Mo  Mo29  1  3.14434876  6.32240724  -0.00272087  1
  Mo  Mo30  1  4.72346550  7.83680953  1.52320752  1
  Mo  Mo31  1  3.19547363  6.28180578  3.17255879  1
  Mo  Mo32  1  4.72181832  7.93214180  4.77619050  1
  Mo  Mo33  1  3.12883319  6.26433470  6.24068113  1
  Mo  Mo34  1  4.77560533  7.87224792  7.84227437  1
  Mo  Mo35  1  6.35657549  0.00358029  -0.00950691  1
  Mo  Mo36  1  7.90455829  1.52140717  1.49925755  1
  Mo  Mo37  1  6.27433464  -0.00287741  3.14304487  1
  Mo  Mo38  1  7.81679240  1.55672958  4.79032515  1
  Mo  Mo39  1  6.34515335  -0.04637848  6.30383227  1
  Mo  Mo40  1  7.88180697  1.53059639  7.93708305  1
  Mo  Mo41  1  6.32055814  3.16192462  -0.01770382  1
  Mo  Mo42  1  7.92519173  4.70797228  1.55244694  1
  Mo  Mo43  1  6.20576816  3.24556871  3.16438787  1
  Mo  Mo44  1  7.90022607  4.72358334  4.75028944  1
  Mo  Mo45  1  6.29109500  3.20375546  6.28088737  1
  Mo  Mo46  1  7.89696625  4.72061001  7.96117510  1
  Mo  Mo47  1  6.28406900  6.36157653  0.03393741  1
  Mo  Mo48  1  7.91358158  7.91106320  1.63342116  1
  Mo  Mo49  1  6.30628306  6.24393057  3.16042481  1
  Mo  Mo50  1  7.95715325  7.90390907  4.69821642  1
  Mo  Mo51  1  6.29510484  6.29278817  6.29020242  1
  Mo  Mo52  1  7.90137257  7.96330367  7.90708211  1
