# generated using pymatgen
data_Mo
_symmetry_space_group_name_H-M   'P 1'
_cell_length_a   9.44236900
_cell_length_b   9.44236900
_cell_length_c   9.44236900
_cell_angle_alpha   90.00000000
_cell_angle_beta   90.00000000
_cell_angle_gamma   90.00000000
_symmetry_Int_Tables_number   1
_chemical_formula_structural   Mo
_chemical_formula_sum   Mo53
_cell_volume   841.86587335
_cell_formula_units_Z   53
loop_
 _symmetry_equiv_pos_site_id
 _symmetry_equiv_pos_as_xyz
  1  'x, y, z'
loop_
 _atom_site_type_symbol
 _atom_site_label
 _atom_site_symmetry_multiplicity
 _atom_site_fract_x
 _atom_site_fract_y
 _atom_site_fract_z
 _atom_site_occupancy
  Mo  Mo0  1  1.57406972  1.57215117  1.56292492  1
  Mo  Mo1  1  0.01069942  0.01530215  3.13233172  1
  Mo  Mo2  1  1.53947228  1.55570822  4.71850136  1
  Mo  Mo3  1  -0.03279621  -0.01010067  6.25818386  1
  Mo  Mo4  1  1.53145253  1.58463877  7.85780500  1
  Mo  Mo5  1  0.00876416  3.13427909  0.02537452  1
  Mo  Mo6  1  1.55581073  4.75044770  1.58452722  1
  Mo  Mo7  1  0.00704868  3.16444861  3.11876816  1
  Mo  Mo8  1  1.56546316  4.70741017  4.71731949  1
  Mo  Mo9  1  0.02153432  3.13910958  6.30621496  1
  Mo  Mo10  1  1.58440979  4.73634829  7.87412800  1
  Mo  Mo11  1  -0.03304550  6.26987558  0.02943778  1
  Mo  Mo12  1  1.56517709  7.89525779  1.58982430  1
  Mo  Mo13  1  0.00202766  6.28164150  3.13792854  1
  Mo  Mo14  1  1.53811522  7.86972419  4.75123990  1
  Mo  Mo15  1  -0.00162857  6.27567334  6.31517223  1
  Mo  Mo16  1  1.53501281  7.91538242  7.89741960  1
  Mo  Mo17  1  3.11399018  0.03223297  0.01651533  1
  Mo  Mo18  1  4.75156733  1.55739113  1.56033258  1
  Mo  Mo19  1  3.15445052  0.03386549  3.13671297  1
  Mo  Mo20  1  4.72567898  1.55405348  4.71117813  1
  Mo  Mo21  1  3.11835876  -0.01498394  6.31453857  1
  Mo  Mo22  1  4.73681739  1.56590678  7.85266946  1
  Mo  Mo23  1  3.14580314  3.11760032  -0.00533745  1
  Mo  Mo24  1  4.72525836  4.74336820  1.54505921  1
  Mo  Mo25  1  3.13597062  3.15199851  3.15284092  1
  Mo  Mo26  1  4.72787911  4.70601069  4.73492671  1
  Mo  Mo27  1  3.17862238  3.14612782  6.30089369  1
  Mo  Mo28  1  4.74591091  4.75269868  7.87803831  1
  Mo  Mo29  1  3.12545182  6.33105272  -0.02393581  1
  Mo  Mo30  1  4.75151474  7.88009707  1.59251123  1
  Mo  Mo31  1  3.14425423  6.29578034  3.11526552  1
  Mo  Mo32  1  4.69217615  7.87240282  4.70344627  1
  Mo  Mo33  1  3.14936292  6.28244369  6.27269237  1
  Mo  Mo34  1  4.74338743  7.90032567  7.87818184  1
  Mo  Mo35  1  6.30353628  0.00890654  0.02789231  1
  Mo  Mo36  1  7.92578602  1.54278971  1.55485364  1
  Mo  Mo37  1  6.29602857  -0.02033735  3.12628731  1
  Mo  Mo38  1  7.86371934  1.50897208  4.70934613  1
  Mo  Mo39  1  6.26481593  0.00598935  6.32948956  1
  Mo  Mo40  1  7.89843789  1.56298853  7.88714343  1
  Mo  Mo41  1  6.27676232  3.14431194  0.01673379  1
  Mo  Mo42  1  7.88003021  4.73392316  1.57323245  1
  Mo  Mo43  1  6.26413490  3.13572734  3.11037333  1
  Mo  Mo44  1  7.87659618  4.68846521  4.71660656  1
  Mo  Mo45  1  6.28847920  3.14006026  6.29526546  1
  Mo  Mo46  1  7.91571770  4.71283874  7.91719698  1
  Mo  Mo47  1  6.26758016  6.32006627  0.00764108  1
  Mo  Mo48  1  7.88037646  7.87867215  1.56052065  1
  Mo  Mo49  1  6.33829723  6.25505284  3.11645669  1
  Mo  Mo50  1  7.89634917  7.87533622  4.70522826  1
  Mo  Mo51  1  6.30526602  6.30810503  6.26884001  1
  Mo  Mo52  1  7.87335156  7.88577396  7.91656834  1
