# generated using pymatgen
data_Mo
_symmetry_space_group_name_H-M   'P 1'
_cell_length_a   9.44236900
_cell_length_b   9.44236900
_cell_length_c   9.44236900
_cell_angle_alpha   90.00000000
_cell_angle_beta   90.00000000
_cell_angle_gamma   90.00000000
_symmetry_Int_Tables_number   1
_chemical_formula_structural   Mo
_chemical_formula_sum   Mo53
_cell_volume   841.86587335
_cell_formula_units_Z   53
loop_
 _symmetry_equiv_pos_site_id
 _symmetry_equiv_pos_as_xyz
  1  'x, y, z'
loop_
 _atom_site_type_symbol
 _atom_site_label
 _atom_site_symmetry_multiplicity
 _atom_site_fract_x
 _atom_site_fract_y
 _atom_site_fract_z
 _atom_site_occupancy
  Mo  Mo0  1  1.58953347  1.60939553  1.57109994  1
  Mo  Mo1  1  0.02823387  0.02475844  3.10919354  1
  Mo  Mo2  1  1.47941105  1.53452178  4.71925136  1
  Mo  Mo3  1  -0.08594552  -0.02637338  6.22696998  1
  Mo  Mo4  1  1.49031582  1.60612612  7.82047627  1
  Mo  Mo5  1  0.03424316  3.13556676  0.04890017  1
  Mo  Mo6  1  1.52208933  4.79331601  1.57816051  1
  Mo  Mo7  1  0.01235824  3.18987558  3.11014493  1
  Mo  Mo8  1  1.56132076  4.69685977  4.72454440  1
  Mo  Mo9  1  0.04946174  3.14142695  6.30506309  1
  Mo  Mo10  1  1.59736333  4.75795025  7.89690835  1
  Mo  Mo11  1  -0.06152981  6.23577694  0.05963378  1
  Mo  Mo12  1  1.57422424  7.92026830  1.63893842  1
  Mo  Mo13  1  0.01487414  6.25221405  3.14513660  1
  Mo  Mo14  1  1.48127014  7.88456482  4.78944967  1
  Mo  Mo15  1  -0.00246830  6.22746931  6.33010934  1
  Mo  Mo16  1  1.48375462  7.96388310  7.92533620  1
  Mo  Mo17  1  3.10297202  0.06944508  0.02879794  1
  Mo  Mo18  1  4.79274847  1.53044068  1.52843312  1
  Mo  Mo19  1  3.17837362  0.06432408  3.14959034  1
  Mo  Mo20  1  4.72778450  1.51775784  4.70203027  1
  Mo  Mo21  1  3.07828098  -0.02932859  6.32381876  1
  Mo  Mo22  1  4.75705434  1.54754251  7.84693125  1
  Mo  Mo23  1  3.16284034  3.11187502  -0.02216157  1
  Mo  Mo24  1  4.71243238  4.76764012  1.50840174  1
  Mo  Mo25  1  3.14213290  3.17555790  3.16200378  1
  Mo  Mo26  1  4.74685326  4.69295180  4.73093331  1
  Mo  Mo27  1  3.22982951  3.15803281  6.29154243  1
  Mo  Mo28  1  4.78753355  4.80434392  7.87461219  1
  Mo  Mo29  1  3.09928518  6.36049624  -0.06855563  1
  Mo  Mo30  1  4.78755801  7.90959678  1.61410698  1
  Mo  Mo31  1  3.16229009  6.28727866  3.09198026  1
  Mo  Mo32  1  4.66884789  7.86677330  4.68612897  1
  Mo  Mo33  1  3.16863883  6.25670038  6.23363024  1
  Mo  Mo34  1  4.75652942  7.96332913  7.90996692  1
  Mo  Mo35  1  6.29197946  0.02888071  0.05501334  1
  Mo  Mo36  1  7.98885476  1.50948968  1.53981067  1
  Mo  Mo37  1  6.28260840  -0.05321966  3.11862052  1
  Mo  Mo38  1  7.85875681  1.41776802  4.67546863  1
  Mo  Mo39  1  6.19596953  0.01162963  6.34628801  1
  Mo  Mo40  1  7.91969656  1.56367364  7.89404364  1
  Mo  Mo41  1  6.23778964  3.16120899  0.03480985  1
  Mo  Mo42  1  7.88717620  4.72918552  1.57112461  1
  Mo  Mo43  1  6.21881086  3.12060038  3.08300268  1
  Mo  Mo44  1  7.89313544  4.63457559  4.72286699  1
  Mo  Mo45  1  6.28392446  3.14727372  6.28750799  1
  Mo  Mo46  1  7.98788627  4.70155135  7.98973362  1
  Mo  Mo47  1  6.20669697  6.33709550  0.00262329  1
  Mo  Mo48  1  7.90422321  7.89194171  1.57256762  1
  Mo  Mo49  1  6.35759354  6.18628084  3.10069883  1
  Mo  Mo50  1  7.93434773  7.86699512  4.68786175  1
  Mo  Mo51  1  6.30623211  6.31115745  6.22192888  1
  Mo  Mo52  1  7.86712988  7.88486618  7.95782865  1
