# generated using pymatgen
data_Mo
_symmetry_space_group_name_H-M   'P 1'
_cell_length_a   9.44236900
_cell_length_b   9.44236900
_cell_length_c   9.44236900
_cell_angle_alpha   90.00000000
_cell_angle_beta   90.00000000
_cell_angle_gamma   90.00000000
_symmetry_Int_Tables_number   1
_chemical_formula_structural   Mo
_chemical_formula_sum   Mo53
_cell_volume   841.86587335
_cell_formula_units_Z   53
loop_
 _symmetry_equiv_pos_site_id
 _symmetry_equiv_pos_as_xyz
  1  'x, y, z'
loop_
 _atom_site_type_symbol
 _atom_site_label
 _atom_site_symmetry_multiplicity
 _atom_site_fract_x
 _atom_site_fract_y
 _atom_site_fract_z
 _atom_site_occupancy
  Mo  Mo0  1  1.58414859  1.64248279  1.57276485  1
  Mo  Mo1  1  0.03630736  -0.00612592  3.05357193  1
  Mo  Mo2  1  1.47180903  1.56079549  4.72902605  1
  Mo  Mo3  1  -0.10021320  -0.02854412  6.34284702  1
  Mo  Mo4  1  1.49676929  1.56999497  7.83751182  1
  Mo  Mo5  1  0.06048830  3.10387736  0.01423594  1
  Mo  Mo6  1  1.52213566  4.79339715  1.55374808  1
  Mo  Mo7  1  0.00561791  3.16007730  3.16190725  1
  Mo  Mo8  1  1.57358707  4.71821604  4.74533216  1
  Mo  Mo9  1  0.03303143  3.14122437  6.29726690  1
  Mo  Mo10  1  1.60248280  4.74416692  7.91593333  1
  Mo  Mo11  1  -0.01644880  6.32654806  0.03896748  1
  Mo  Mo12  1  1.57093055  7.94298740  1.62803322  1
  Mo  Mo13  1  0.03592902  6.25493136  3.16623449  1
  Mo  Mo14  1  1.49304670  7.89669847  4.77627438  1
  Mo  Mo15  1  0.00089807  6.22067884  6.32264269  1
  Mo  Mo16  1  1.44877241  7.96151284  7.94729290  1
  Mo  Mo17  1  3.10403363  0.04816561  0.00764430  1
  Mo  Mo18  1  4.76889815  1.54900808  1.52142638  1
  Mo  Mo19  1  3.17879334  0.01920996  3.18255343  1
  Mo  Mo20  1  4.71020180  1.50298484  4.71594360  1
  Mo  Mo21  1  3.05503867  -0.00824501  6.30095493  1
  Mo  Mo22  1  4.74550122  1.56167176  7.86698909  1
  Mo  Mo23  1  3.18224129  3.16892467  -0.05086698  1
  Mo  Mo24  1  4.67201977  4.74743896  1.50964910  1
  Mo  Mo25  1  3.16685089  3.18453206  3.14430720  1
  Mo  Mo26  1  4.76149495  4.70226631  4.67760922  1
  Mo  Mo27  1  3.22053491  3.16826577  6.27323681  1
  Mo  Mo28  1  4.79325342  4.80192516  7.83958231  1
  Mo  Mo29  1  3.09059786  6.35245857  -0.08119422  1
  Mo  Mo30  1  4.75893463  7.91533918  1.61058471  1
  Mo  Mo31  1  3.18770754  6.29552380  3.12505384  1
  Mo  Mo32  1  4.70973160  7.85408707  4.71271464  1
  Mo  Mo33  1  3.18116431  6.27276179  6.24490906  1
  Mo  Mo34  1  4.70117779  7.97428166  7.93468627  1
  Mo  Mo35  1  6.32560281  0.03318832  0.01359927  1
  Mo  Mo36  1  7.98268868  1.49458026  1.51441197  1
  Mo  Mo37  1  6.28158940  -0.06739400  3.14789819  1
  Mo  Mo38  1  7.85068297  1.44256597  4.64740040  1
  Mo  Mo39  1  6.17961086  0.00085200  6.29183118  1
  Mo  Mo40  1  7.92320189  1.55045276  7.91024741  1
  Mo  Mo41  1  6.24895828  3.18235059  0.01196999  1
  Mo  Mo42  1  7.85544667  4.68703998  1.57437859  1
  Mo  Mo43  1  6.24877077  3.09684315  3.12091948  1
  Mo  Mo44  1  7.91317983  4.62411486  4.74373564  1
  Mo  Mo45  1  6.31333550  3.15473058  6.29409424  1
  Mo  Mo46  1  7.97390354  4.69757875  7.97512186  1
  Mo  Mo47  1  6.20200321  6.33259580  -0.02202278  1
  Mo  Mo48  1  7.95857051  7.92761305  1.58391483  1
  Mo  Mo49  1  6.29463657  6.19250836  3.13245764  1
  Mo  Mo50  1  7.91560166  7.80637779  4.70098441  1
  Mo  Mo51  1  6.30023922  6.30416081  6.23179290  1
  Mo  Mo52  1  7.87781706  7.87963371  7.94119796  1
