# generated using pymatgen
data_Mo
_symmetry_space_group_name_H-M   'P 1'
_cell_length_a   9.44236900
_cell_length_b   9.44236900
_cell_length_c   9.44236900
_cell_angle_alpha   90.00000000
_cell_angle_beta   90.00000000
_cell_angle_gamma   90.00000000
_symmetry_Int_Tables_number   1
_chemical_formula_structural   Mo
_chemical_formula_sum   Mo53
_cell_volume   841.86587335
_cell_formula_units_Z   53
loop_
 _symmetry_equiv_pos_site_id
 _symmetry_equiv_pos_as_xyz
  1  'x, y, z'
loop_
 _atom_site_type_symbol
 _atom_site_label
 _atom_site_symmetry_multiplicity
 _atom_site_fract_x
 _atom_site_fract_y
 _atom_site_fract_z
 _atom_site_occupancy
  Mo  Mo0  1  1.58069180  1.61194362  1.56637971  1
  Mo  Mo1  1  0.01575380  -0.01157128  3.17758032  1
  Mo  Mo2  1  1.53755200  1.62507831  4.74652546  1
  Mo  Mo3  1  -0.01836125  0.01199370  6.36033200  1
  Mo  Mo4  1  1.58398288  1.51420321  7.95332530  1
  Mo  Mo5  1  0.00051106  3.14518890  -0.00620067  1
  Mo  Mo6  1  1.51183783  4.72027056  1.54644465  1
  Mo  Mo7  1  0.01401579  3.11135901  3.22031761  1
  Mo  Mo8  1  1.59410989  4.77833339  4.72793263  1
  Mo  Mo9  1  0.00462869  3.12951181  6.35404898  1
  Mo  Mo10  1  1.56005790  4.70053201  7.86356400  1
  Mo  Mo11  1  -0.00200004  6.37567117  -0.01603851  1
  Mo  Mo12  1  1.55549485  7.91352468  1.52535947  1
  Mo  Mo13  1  0.01679091  6.28686967  3.14083076  1
  Mo  Mo14  1  1.60084007  7.93897808  4.71703643  1
  Mo  Mo15  1  0.02339888  6.32008266  6.27644058  1
  Mo  Mo16  1  1.57549002  7.87123150  7.91186499  1
  Mo  Mo17  1  3.14791262  -0.01441626  -0.01032855  1
  Mo  Mo18  1  4.68616853  1.58604215  1.54117603  1
  Mo  Mo19  1  3.16437286  -0.07814727  3.17737159  1
  Mo  Mo20  1  4.66818302  1.58918493  4.71880151  1
  Mo  Mo21  1  3.11361344  0.03650492  6.26945099  1
  Mo  Mo22  1  4.69187898  1.58854001  7.85809817  1
  Mo  Mo23  1  3.19223638  3.19876276  -0.06585964  1
  Mo  Mo24  1  4.69664001  4.71090699  1.55613163  1
  Mo  Mo25  1  3.16346432  3.11887227  3.12439716  1
  Mo  Mo26  1  4.72914845  4.69350327  4.69383019  1
  Mo  Mo27  1  3.13311992  3.16703196  6.24426712  1
  Mo  Mo28  1  4.70045626  4.67709300  7.83761616  1
  Mo  Mo29  1  3.15274363  6.28148642  0.01188616  1
  Mo  Mo30  1  4.69156835  7.89549704  1.56930090  1
  Mo  Mo31  1  3.16465302  6.30591038  3.19260641  1
  Mo  Mo32  1  4.75343019  7.87151906  4.79822373  1
  Mo  Mo33  1  3.14525439  6.34319643  6.31907925  1
  Mo  Mo34  1  4.64010553  7.84585325  7.90741095  1
  Mo  Mo35  1  6.31503094  -0.00243881  -0.04460933  1
  Mo  Mo36  1  7.82267880  1.53535339  1.50223911  1
  Mo  Mo37  1  6.32963861  -0.03297931  3.15738577  1
  Mo  Mo38  1  7.86669446  1.55852400  4.74440687  1
  Mo  Mo39  1  6.29210815  -0.00217189  6.23917637  1
  Mo  Mo40  1  7.85624965  1.53597381  7.91043423  1
  Mo  Mo41  1  6.36882474  3.20108894  -0.04496838  1
  Mo  Mo42  1  7.84491995  4.71044825  1.55035738  1
  Mo  Mo43  1  6.35790818  3.10768298  3.17618061  1
  Mo  Mo44  1  7.90061768  4.71540734  4.71350420  1
  Mo  Mo45  1  6.32563049  3.12434819  6.27122363  1
  Mo  Mo46  1  7.87123737  4.70797325  7.84901971  1
  Mo  Mo47  1  6.31024298  6.33143319  0.01279076  1
  Mo  Mo48  1  7.89527045  7.88886025  1.53837607  1
  Mo  Mo49  1  6.27315081  6.32059549  3.14571351  1
  Mo  Mo50  1  7.89115823  7.80169518  4.72538544  1
  Mo  Mo51  1  6.29557721  6.26961547  6.35390334  1
  Mo  Mo52  1  7.84662370  7.82136029  7.84358459  1
