# generated using pymatgen
data_Mo
_symmetry_space_group_name_H-M   'P 1'
_cell_length_a   9.44236900
_cell_length_b   9.44236900
_cell_length_c   9.44236900
_cell_angle_alpha   90.00000000
_cell_angle_beta   90.00000000
_cell_angle_gamma   90.00000000
_symmetry_Int_Tables_number   1
_chemical_formula_structural   Mo
_chemical_formula_sum   Mo53
_cell_volume   841.86587335
_cell_formula_units_Z   53
loop_
 _symmetry_equiv_pos_site_id
 _symmetry_equiv_pos_as_xyz
  1  'x, y, z'
loop_
 _atom_site_type_symbol
 _atom_site_label
 _atom_site_symmetry_multiplicity
 _atom_site_fract_x
 _atom_site_fract_y
 _atom_site_fract_z
 _atom_site_occupancy
  Mo  Mo0  1  1.53034047  1.52153991  1.55604900  1
  Mo  Mo1  1  -0.01336303  0.01320697  3.15179302  1
  Mo  Mo2  1  1.59907564  1.56746989  4.75470642  1
  Mo  Mo3  1  0.08804702  0.05106178  6.27762505  1
  Mo  Mo4  1  1.48678254  1.55035693  7.95323834  1
  Mo  Mo5  1  -0.01865678  3.09111234  0.06517185  1
  Mo  Mo6  1  1.54572334  4.70409687  1.54531696  1
  Mo  Mo7  1  -0.01268257  3.16828629  3.16157276  1
  Mo  Mo8  1  1.51636791  4.73215759  4.68084447  1
  Mo  Mo9  1  -0.00754785  3.21783873  6.31432441  1
  Mo  Mo10  1  1.54868023  4.70860194  7.92602646  1
  Mo  Mo11  1  -0.01843153  6.28011297  -0.06281992  1
  Mo  Mo12  1  1.50036409  7.87012672  1.55860054  1
  Mo  Mo13  1  -0.03713727  6.32600827  3.08412395  1
  Mo  Mo14  1  1.61699870  7.91129467  4.69314445  1
  Mo  Mo15  1  -0.00700401  6.35996583  6.21160798  1
  Mo  Mo16  1  1.69006189  7.85357930  7.87633043  1
  Mo  Mo17  1  3.11170580  -0.02934779  0.02279957  1
  Mo  Mo18  1  4.71429421  1.57228495  1.47663493  1
  Mo  Mo19  1  3.18768020  0.02316326  3.10255439  1
  Mo  Mo20  1  4.76103376  1.57264034  4.65422913  1
  Mo  Mo21  1  3.24128385  0.02081308  6.29051635  1
  Mo  Mo22  1  4.68434985  1.48183887  7.83184893  1
  Mo  Mo23  1  3.13880971  3.04678457  0.06918498  1
  Mo  Mo24  1  4.76842238  4.74200439  1.60489327  1
  Mo  Mo25  1  3.14069572  3.14714611  3.16890838  1
  Mo  Mo26  1  4.67902788  4.75704397  4.77068865  1
  Mo  Mo27  1  3.12256059  3.15734801  6.29547277  1
  Mo  Mo28  1  4.68788952  4.66694961  7.95364771  1
  Mo  Mo29  1  3.16672023  6.20711930  0.08029235  1
  Mo  Mo30  1  4.71636782  7.88511469  1.59010884  1
  Mo  Mo31  1  3.14319190  6.24797186  3.15928715  1
  Mo  Mo32  1  4.71786472  7.89266467  4.69082508  1
  Mo  Mo33  1  3.13741286  6.25257817  6.28856584  1
  Mo  Mo34  1  4.78857901  7.80076880  7.92762829  1
  Mo  Mo35  1  6.29651992  -0.00000088  0.02120996  1
  Mo  Mo36  1  7.78570904  1.60978965  1.57398089  1
  Mo  Mo37  1  6.30594483  0.05100189  3.19636905  1
  Mo  Mo38  1  7.90256479  1.56128723  4.77640795  1
  Mo  Mo39  1  6.31478294  0.01732869  6.34469624  1
  Mo  Mo40  1  7.90159265  1.50059988  7.84842942  1
  Mo  Mo41  1  6.29394139  3.13537190  0.02510308  1
  Mo  Mo42  1  7.90458984  4.79290108  1.50129468  1
  Mo  Mo43  1  6.28825803  3.23590575  3.13662072  1
  Mo  Mo44  1  7.86217321  4.75738359  4.69281052  1
  Mo  Mo45  1  6.23726842  3.16180280  6.25812366  1
  Mo  Mo46  1  7.90328140  4.67904413  7.84125396  1
  Mo  Mo47  1  6.30494123  6.26641535  0.05427748  1
  Mo  Mo48  1  7.83487722  7.92325299  1.47430907  1
  Mo  Mo49  1  6.32910296  6.32019743  3.22976376  1
  Mo  Mo50  1  7.91928346  7.96300538  4.67341113  1
  Mo  Mo51  1  6.27570065  6.26775075  6.24555810  1
  Mo  Mo52  1  7.87726664  7.83857088  7.83394493  1
