# generated using pymatgen
data_Mo
_symmetry_space_group_name_H-M   'P 1'
_cell_length_a   9.44236900
_cell_length_b   9.44236900
_cell_length_c   9.44236900
_cell_angle_alpha   90.00000000
_cell_angle_beta   90.00000000
_cell_angle_gamma   90.00000000
_symmetry_Int_Tables_number   1
_chemical_formula_structural   Mo
_chemical_formula_sum   Mo53
_cell_volume   841.86587335
_cell_formula_units_Z   53
loop_
 _symmetry_equiv_pos_site_id
 _symmetry_equiv_pos_as_xyz
  1  'x, y, z'
loop_
 _atom_site_type_symbol
 _atom_site_label
 _atom_site_symmetry_multiplicity
 _atom_site_fract_x
 _atom_site_fract_y
 _atom_site_fract_z
 _atom_site_occupancy
  Mo  Mo0  1  1.57213160  1.56902182  1.50815667  1
  Mo  Mo1  1  0.00514185  -0.02665985  3.16317674  1
  Mo  Mo2  1  1.54058058  1.49600041  4.67971994  1
  Mo  Mo3  1  -0.07850811  -0.05138378  6.25612566  1
  Mo  Mo4  1  1.68154445  1.47825709  7.83284820  1
  Mo  Mo5  1  -0.03141386  3.18381159  -0.05598714  1
  Mo  Mo6  1  1.50531311  4.72527248  1.62827928  1
  Mo  Mo7  1  -0.01336758  3.14609092  3.15483775  1
  Mo  Mo8  1  1.58790060  4.69337218  4.79072887  1
  Mo  Mo9  1  -0.03210601  3.09341012  6.29956552  1
  Mo  Mo10  1  1.57794547  4.65959061  7.90096240  1
  Mo  Mo11  1  0.01815738  6.32073726  0.02109506  1
  Mo  Mo12  1  1.61594013  7.90903009  1.54773318  1
  Mo  Mo13  1  0.00296877  6.23727157  3.13718983  1
  Mo  Mo14  1  1.48938458  7.82259627  4.72781071  1
  Mo  Mo15  1  -0.02353993  6.24532702  6.30128220  1
  Mo  Mo16  1  1.51401735  7.81655750  7.84671297  1
  Mo  Mo17  1  3.13667443  0.00440395  -0.05637004  1
  Mo  Mo18  1  4.66311844  1.53981765  1.60518619  1
  Mo  Mo19  1  3.14034197  0.00849722  3.14316722  1
  Mo  Mo20  1  4.69058754  1.59390273  4.78541170  1
  Mo  Mo21  1  3.08854878  -0.01663422  6.22698338  1
  Mo  Mo22  1  4.76697092  1.50317160  7.90708019  1
  Mo  Mo23  1  3.11763507  3.19481237  0.00170966  1
  Mo  Mo24  1  4.66766899  4.71912454  1.54462336  1
  Mo  Mo25  1  3.11274380  3.16854752  3.19080172  1
  Mo  Mo26  1  4.72270008  4.71086148  4.75257410  1
  Mo  Mo27  1  3.14973507  3.13160126  6.33505287  1
  Mo  Mo28  1  4.75342117  4.70263131  7.87783973  1
  Mo  Mo29  1  3.19294510  6.34272327  -0.04364422  1
  Mo  Mo30  1  4.75951613  7.94733046  1.51757830  1
  Mo  Mo31  1  3.14643233  6.36034723  3.16860041  1
  Mo  Mo32  1  4.73017456  7.91287528  4.77248604  1
  Mo  Mo33  1  3.15074464  6.31528922  6.30825737  1
  Mo  Mo34  1  4.72159392  7.88549060  7.87542314  1
  Mo  Mo35  1  6.32006566  -0.01424895  0.00771780  1
  Mo  Mo36  1  7.91120720  1.60825377  1.53292859  1
  Mo  Mo37  1  6.30618794  -0.02211578  3.14038004  1
  Mo  Mo38  1  7.92655466  1.59256828  4.69508783  1
  Mo  Mo39  1  6.28414106  0.02642809  6.27850101  1
  Mo  Mo40  1  7.89604799  1.58567707  7.86043923  1
  Mo  Mo41  1  6.26210189  3.13066806  0.02645045  1
  Mo  Mo42  1  7.88919775  4.73109160  1.51800316  1
  Mo  Mo43  1  6.23720368  3.12680124  3.20122002  1
  Mo  Mo44  1  7.84913220  4.75620704  4.68435451  1
  Mo  Mo45  1  6.31459508  3.16141343  6.34677746  1
  Mo  Mo46  1  7.95352973  4.78076440  7.86400865  1
  Mo  Mo47  1  6.34052327  6.29525618  -0.02828475  1
  Mo  Mo48  1  7.94811149  7.88224936  1.57263937  1
  Mo  Mo49  1  6.25856093  6.31298211  3.04432995  1
  Mo  Mo50  1  7.87245714  7.87716285  4.75121187  1
  Mo  Mo51  1  6.27320014  6.33216447  6.35128282  1
  Mo  Mo52  1  7.96684627  7.94689233  7.95326033  1
