# generated using pymatgen
data_Mo
_symmetry_space_group_name_H-M   'P 1'
_cell_length_a   9.44236900
_cell_length_b   9.44236900
_cell_length_c   9.44236900
_cell_angle_alpha   90.00000000
_cell_angle_beta   90.00000000
_cell_angle_gamma   90.00000000
_symmetry_Int_Tables_number   1
_chemical_formula_structural   Mo
_chemical_formula_sum   Mo53
_cell_volume   841.86587335
_cell_formula_units_Z   53
loop_
 _symmetry_equiv_pos_site_id
 _symmetry_equiv_pos_as_xyz
  1  'x, y, z'
loop_
 _atom_site_type_symbol
 _atom_site_label
 _atom_site_symmetry_multiplicity
 _atom_site_fract_x
 _atom_site_fract_y
 _atom_site_fract_z
 _atom_site_occupancy
  Mo  Mo0  1  1.56444672  1.54694239  1.50115789  1
  Mo  Mo1  1  0.00316497  -0.03696325  3.08381050  1
  Mo  Mo2  1  1.57585719  1.51172210  4.70832306  1
  Mo  Mo3  1  -0.08398318  0.00737833  6.31151006  1
  Mo  Mo4  1  1.61015472  1.59674311  7.89179924  1
  Mo  Mo5  1  0.00858363  3.13207139  0.01201653  1
  Mo  Mo6  1  1.54842429  4.71349533  1.54375361  1
  Mo  Mo7  1  -0.01958141  3.10607895  3.13502524  1
  Mo  Mo8  1  1.57780688  4.67550334  4.72223786  1
  Mo  Mo9  1  0.00825155  3.12770813  6.30352998  1
  Mo  Mo10  1  1.62274426  4.78075406  7.86987744  1
  Mo  Mo11  1  0.02562233  6.32588821  0.08428539  1
  Mo  Mo12  1  1.56162241  7.88719563  1.58806769  1
  Mo  Mo13  1  -0.00017605  6.24071948  3.25765590  1
  Mo  Mo14  1  1.49668147  7.80822151  4.75762499  1
  Mo  Mo15  1  -0.02106330  6.26885141  6.35728345  1
  Mo  Mo16  1  1.51035340  7.91802833  7.94666069  1
  Mo  Mo17  1  3.16777873  0.05514471  0.00352203  1
  Mo  Mo18  1  4.74231533  1.59957276  1.58815265  1
  Mo  Mo19  1  3.18924204  0.01176921  3.12725530  1
  Mo  Mo20  1  4.72925032  1.54366675  4.71860552  1
  Mo  Mo21  1  3.09519624  -0.00089191  6.28971807  1
  Mo  Mo22  1  4.72519934  1.61862201  7.91795593  1
  Mo  Mo23  1  3.16930925  3.22300852  -0.05043753  1
  Mo  Mo24  1  4.66962082  4.72732927  1.54446470  1
  Mo  Mo25  1  3.15094573  3.15742005  3.15249060  1
  Mo  Mo26  1  4.74491840  4.76999786  4.72750544  1
  Mo  Mo27  1  3.19216810  3.14883329  6.22962082  1
  Mo  Mo28  1  4.74566489  4.75157708  7.85372755  1
  Mo  Mo29  1  3.16032095  6.34471463  -0.04569394  1
  Mo  Mo30  1  4.68235707  7.88534710  1.52986729  1
  Mo  Mo31  1  3.20315347  6.27643681  3.13548591  1
  Mo  Mo32  1  4.65650164  7.88077020  4.69315366  1
  Mo  Mo33  1  3.14972883  6.27718144  6.25280160  1
  Mo  Mo34  1  4.72590993  7.92240670  7.85444786  1
  Mo  Mo35  1  6.35744480  0.03566900  0.04566501  1
  Mo  Mo36  1  7.94102803  1.49926786  1.50454842  1
  Mo  Mo37  1  6.32674932  -0.02854993  3.18746641  1
  Mo  Mo38  1  7.86140153  1.54946689  4.69322507  1
  Mo  Mo39  1  6.23196427  0.00102618  6.34254188  1
  Mo  Mo40  1  7.87896223  1.60909608  7.89123021  1
  Mo  Mo41  1  6.29865734  3.16340962  0.00678026  1
  Mo  Mo42  1  7.80038220  4.68691788  1.56579619  1
  Mo  Mo43  1  6.29065105  3.12768859  3.10488122  1
  Mo  Mo44  1  7.90180176  4.67922126  4.73720066  1
  Mo  Mo45  1  6.32212830  3.16915446  6.22640806  1
  Mo  Mo46  1  7.89789455  4.72886564  7.89394520  1
  Mo  Mo47  1  6.29728348  6.30054592  0.00036971  1
  Mo  Mo48  1  7.86442626  7.87125848  1.58374413  1
  Mo  Mo49  1  6.31259746  6.24373201  3.17989797  1
  Mo  Mo50  1  7.79388003  7.85644748  4.71605262  1
  Mo  Mo51  1  6.32184658  6.28133464  6.24251012  1
  Mo  Mo52  1  7.86571718  7.87551535  7.93378125  1
