# generated using pymatgen
data_Mo
_symmetry_space_group_name_H-M   'P 1'
_cell_length_a   9.44236900
_cell_length_b   9.44236900
_cell_length_c   9.44236900
_cell_angle_alpha   90.00000000
_cell_angle_beta   90.00000000
_cell_angle_gamma   90.00000000
_symmetry_Int_Tables_number   1
_chemical_formula_structural   Mo
_chemical_formula_sum   Mo53
_cell_volume   841.86587335
_cell_formula_units_Z   53
loop_
 _symmetry_equiv_pos_site_id
 _symmetry_equiv_pos_as_xyz
  1  'x, y, z'
loop_
 _atom_site_type_symbol
 _atom_site_label
 _atom_site_symmetry_multiplicity
 _atom_site_fract_x
 _atom_site_fract_y
 _atom_site_fract_z
 _atom_site_occupancy
  Mo  Mo0  1  1.52110042  1.50547063  1.56609007  1
  Mo  Mo1  1  0.02984303  -0.00232389  3.05161643  1
  Mo  Mo2  1  1.59181327  1.52080350  4.71935266  1
  Mo  Mo3  1  -0.02096803  0.00443958  6.41747426  1
  Mo  Mo4  1  1.52006268  1.66534906  7.91215597  1
  Mo  Mo5  1  0.03529446  3.06800014  0.02111656  1
  Mo  Mo6  1  1.56165428  4.71694612  1.52851612  1
  Mo  Mo7  1  0.00045327  3.10613138  3.13253974  1
  Mo  Mo8  1  1.53926295  4.67456718  4.69358684  1
  Mo  Mo9  1  0.03193332  3.18481671  6.24244514  1
  Mo  Mo10  1  1.60271821  4.81445613  7.92846512  1
  Mo  Mo11  1  0.02111220  6.35587981  0.05068622  1
  Mo  Mo12  1  1.50470948  7.84169531  1.57982883  1
  Mo  Mo13  1  0.01485485  6.26770046  3.24386428  1
  Mo  Mo14  1  1.53858208  7.87159730  4.74004338  1
  Mo  Mo15  1  0.00864190  6.30896167  6.34801622  1
  Mo  Mo16  1  1.52707358  7.98490127  7.98871745  1
  Mo  Mo17  1  3.11534654  0.02515626  0.02687510  1
  Mo  Mo18  1  4.79616525  1.59260490  1.54481907  1
  Mo  Mo19  1  3.18673488  0.02699146  3.15810472  1
  Mo  Mo20  1  4.75984208  1.53825223  4.68365298  1
  Mo  Mo21  1  3.12302017  -0.00948315  6.31060051  1
  Mo  Mo22  1  4.72443819  1.65348669  7.91374510  1
  Mo  Mo23  1  3.16696758  3.17000964  -0.02954193  1
  Mo  Mo24  1  4.71309222  4.74376257  1.54604248  1
  Mo  Mo25  1  3.19914607  3.15566652  3.10381422  1
  Mo  Mo26  1  4.73149678  4.71451550  4.64794751  1
  Mo  Mo27  1  3.19545667  3.16669711  6.22943864  1
  Mo  Mo28  1  4.76140345  4.79185537  7.82664149  1
  Mo  Mo29  1  3.14584978  6.32063766  -0.02196669  1
  Mo  Mo30  1  4.68703158  7.84503135  1.55598569  1
  Mo  Mo31  1  3.13884624  6.23521927  3.11784234  1
  Mo  Mo32  1  4.66407076  7.86489155  4.66650883  1
  Mo  Mo33  1  3.16705270  6.27691792  6.24466283  1
  Mo  Mo34  1  4.70007803  7.92845705  7.88449741  1
  Mo  Mo35  1  6.36902403  0.00560200  0.03543567  1
  Mo  Mo36  1  7.94026199  1.45533471  1.52557310  1
  Mo  Mo37  1  6.31277791  0.02776217  3.19675548  1
  Mo  Mo38  1  7.86017862  1.52480353  4.65822163  1
  Mo  Mo39  1  6.23559335  -0.02537270  6.32949263  1
  Mo  Mo40  1  7.89272476  1.59013653  7.90702815  1
  Mo  Mo41  1  6.27492115  3.16117741  -0.02153390  1
  Mo  Mo42  1  7.81048236  4.67869954  1.57842530  1
  Mo  Mo43  1  6.32215341  3.16064035  3.11973463  1
  Mo  Mo44  1  7.93354265  4.64455985  4.75837549  1
  Mo  Mo45  1  6.27694055  3.15531759  6.23093063  1
  Mo  Mo46  1  7.88214007  4.70634755  7.92819106  1
  Mo  Mo47  1  6.26048231  6.25293495  0.01289137  1
  Mo  Mo48  1  7.81086395  7.88929953  1.55960011  1
  Mo  Mo49  1  6.30961419  6.25005902  3.23455059  1
  Mo  Mo50  1  7.82431381  7.90619213  4.72844122  1
  Mo  Mo51  1  6.30541840  6.27061792  6.23691888  1
  Mo  Mo52  1  7.82769296  7.86913800  7.86008981  1
