# generated using pymatgen
data_Mo
_symmetry_space_group_name_H-M   'P 1'
_cell_length_a   9.44236900
_cell_length_b   9.44236900
_cell_length_c   9.44236900
_cell_angle_alpha   90.00000000
_cell_angle_beta   90.00000000
_cell_angle_gamma   90.00000000
_symmetry_Int_Tables_number   1
_chemical_formula_structural   Mo
_chemical_formula_sum   Mo53
_cell_volume   841.86587335
_cell_formula_units_Z   53
loop_
 _symmetry_equiv_pos_site_id
 _symmetry_equiv_pos_as_xyz
  1  'x, y, z'
loop_
 _atom_site_type_symbol
 _atom_site_label
 _atom_site_symmetry_multiplicity
 _atom_site_fract_x
 _atom_site_fract_y
 _atom_site_fract_z
 _atom_site_occupancy
  Mo  Mo0  1  1.53823814  1.51465979  1.63105725  1
  Mo  Mo1  1  0.03811305  -0.00378225  3.13735311  1
  Mo  Mo2  1  1.57774306  1.53335481  4.72821734  1
  Mo  Mo3  1  0.03261737  0.00123682  6.41745194  1
  Mo  Mo4  1  1.52319700  1.65800343  7.91615633  1
  Mo  Mo5  1  0.00369570  3.09562777  0.00315106  1
  Mo  Mo6  1  1.51702653  4.69129580  1.56809399  1
  Mo  Mo7  1  0.04605567  3.14288919  3.12001704  1
  Mo  Mo8  1  1.54994960  4.70968511  4.69739313  1
  Mo  Mo9  1  0.03926501  3.18945129  6.23278482  1
  Mo  Mo10  1  1.56106557  4.80020037  7.95908507  1
  Mo  Mo11  1  -0.03911891  6.33422411  -0.00381637  1
  Mo  Mo12  1  1.49493644  7.81015392  1.57115214  1
  Mo  Mo13  1  0.01699001  6.31197622  3.17994800  1
  Mo  Mo14  1  1.54879768  7.93347341  4.72958592  1
  Mo  Mo15  1  0.05322253  6.32794370  6.32911808  1
  Mo  Mo16  1  1.54724570  8.00165330  7.96984362  1
  Mo  Mo17  1  3.08436128  0.01271504  0.03198268  1
  Mo  Mo18  1  4.79632534  1.52835949  1.52122140  1
  Mo  Mo19  1  3.16908909  0.00984912  3.17696230  1
  Mo  Mo20  1  4.75186845  1.55870542  4.69277416  1
  Mo  Mo21  1  3.14906504  -0.00596685  6.32929048  1
  Mo  Mo22  1  4.73646341  1.61417183  7.90418165  1
  Mo  Mo23  1  3.14264873  3.13174446  -0.01577220  1
  Mo  Mo24  1  4.75470516  4.72748498  1.52601432  1
  Mo  Mo25  1  3.20303302  3.12668914  3.06604920  1
  Mo  Mo26  1  4.71707538  4.64764921  4.62377287  1
  Mo  Mo27  1  3.16227357  3.18883939  6.26113198  1
  Mo  Mo28  1  4.73896424  4.79235449  7.82420350  1
  Mo  Mo29  1  3.15499575  6.29933505  -0.00499694  1
  Mo  Mo30  1  4.71413713  7.85186646  1.56615279  1
  Mo  Mo31  1  3.07237134  6.24685742  3.13226144  1
  Mo  Mo32  1  4.69720528  7.86372474  4.68954050  1
  Mo  Mo33  1  3.16930995  6.30130853  6.25538846  1
  Mo  Mo34  1  4.66029156  7.93661781  7.89949058  1
  Mo  Mo35  1  6.31033779  -0.04636753  -0.02062481  1
  Mo  Mo36  1  7.90420842  1.47144596  1.52977896  1
  Mo  Mo37  1  6.29356683  0.03835295  3.16360916  1
  Mo  Mo38  1  7.92709275  1.51995161  4.67549508  1
  Mo  Mo39  1  6.26475389  -0.03722167  6.30000441  1
  Mo  Mo40  1  7.88268641  1.57682499  7.90613488  1
  Mo  Mo41  1  6.27297770  3.13877732  -0.04011579  1
  Mo  Mo42  1  7.89048556  4.69018956  1.56468881  1
  Mo  Mo43  1  6.34060458  3.17646382  3.15557326  1
  Mo  Mo44  1  7.91208818  4.69248750  4.73499253  1
  Mo  Mo45  1  6.26498964  3.12244666  6.28292156  1
  Mo  Mo46  1  7.91957533  4.71721818  7.92881207  1
  Mo  Mo47  1  6.26770544  6.23811457  0.01045436  1
  Mo  Mo48  1  7.78274077  7.86933979  1.56173724  1
  Mo  Mo49  1  6.30304264  6.29662216  3.20486551  1
  Mo  Mo50  1  7.90210598  7.95307862  4.73577558  1
  Mo  Mo51  1  6.27460650  6.26456265  6.28428448  1
  Mo  Mo52  1  7.81651511  7.88667269  7.80867839  1
