# generated using pymatgen
data_Mo
_symmetry_space_group_name_H-M   'P 1'
_cell_length_a   9.44236900
_cell_length_b   9.44236900
_cell_length_c   9.44236900
_cell_angle_alpha   90.00000000
_cell_angle_beta   90.00000000
_cell_angle_gamma   90.00000000
_symmetry_Int_Tables_number   1
_chemical_formula_structural   Mo
_chemical_formula_sum   Mo53
_cell_volume   841.86587335
_cell_formula_units_Z   53
loop_
 _symmetry_equiv_pos_site_id
 _symmetry_equiv_pos_as_xyz
  1  'x, y, z'
loop_
 _atom_site_type_symbol
 _atom_site_label
 _atom_site_symmetry_multiplicity
 _atom_site_fract_x
 _atom_site_fract_y
 _atom_site_fract_z
 _atom_site_occupancy
  Mo  Mo0  1  1.58314844  1.57237638  1.62126010  1
  Mo  Mo1  1  -0.01661793  0.01536967  3.13770178  1
  Mo  Mo2  1  1.59429344  1.58851523  4.77656041  1
  Mo  Mo3  1  0.02762555  0.03342142  6.28900600  1
  Mo  Mo4  1  1.63145559  1.50794843  7.93647039  1
  Mo  Mo5  1  -0.06120870  3.12959133  -0.02018606  1
  Mo  Mo6  1  1.52362734  4.70145732  1.61245101  1
  Mo  Mo7  1  0.00461197  3.20224394  3.15331773  1
  Mo  Mo8  1  1.59791309  4.78100925  4.75396510  1
  Mo  Mo9  1  -0.01315258  3.13559082  6.33539766  1
  Mo  Mo10  1  1.54884410  4.71264236  7.87194768  1
  Mo  Mo11  1  -0.02697240  6.32229273  -0.04281212  1
  Mo  Mo12  1  1.52731790  7.87036695  1.57677246  1
  Mo  Mo13  1  -0.01069848  6.35144956  3.09905429  1
  Mo  Mo14  1  1.57162702  7.87604956  4.76938122  1
  Mo  Mo15  1  0.03300420  6.28659645  6.26323017  1
  Mo  Mo16  1  1.54393913  7.87309754  7.87289752  1
  Mo  Mo17  1  3.09801422  -0.00136712  0.01203570  1
  Mo  Mo18  1  4.70767635  1.46014947  1.59010060  1
  Mo  Mo19  1  3.16233579  -0.05236276  3.14051116  1
  Mo  Mo20  1  4.73615583  1.56635369  4.74226535  1
  Mo  Mo21  1  3.15000124  0.03902204  6.28279002  1
  Mo  Mo22  1  4.71243776  1.53327126  7.87364664  1
  Mo  Mo23  1  3.10684710  3.18793873  -0.02331022  1
  Mo  Mo24  1  4.74874964  4.64707407  1.57497114  1
  Mo  Mo25  1  3.15582607  3.11751496  3.15178022  1
  Mo  Mo26  1  4.72313628  4.73307844  4.76529810  1
  Mo  Mo27  1  3.11480280  3.16752369  6.31059806  1
  Mo  Mo28  1  4.68064361  4.66973920  7.92512464  1
  Mo  Mo29  1  3.13419695  6.28332620  0.02125239  1
  Mo  Mo30  1  4.69915600  7.84941954  1.55214670  1
  Mo  Mo31  1  3.19361837  6.29725296  3.15964063  1
  Mo  Mo32  1  4.75004330  7.88100685  4.75920405  1
  Mo  Mo33  1  3.14415957  6.30233135  6.31957762  1
  Mo  Mo34  1  4.70778061  7.87477506  7.83386650  1
  Mo  Mo35  1  6.26106672  -0.04700200  -0.04734870  1
  Mo  Mo36  1  7.89280026  1.55661126  1.53730912  1
  Mo  Mo37  1  6.30411757  -0.02147539  3.12816748  1
  Mo  Mo38  1  7.97561924  1.65587828  4.77597182  1
  Mo  Mo39  1  6.30773344  -0.01516585  6.26834927  1
  Mo  Mo40  1  7.89694200  1.55506365  7.86971608  1
  Mo  Mo41  1  6.27831046  3.08736220  -0.00398601  1
  Mo  Mo42  1  7.89130669  4.72217047  1.52922595  1
  Mo  Mo43  1  6.32371861  3.13108146  3.13678125  1
  Mo  Mo44  1  7.85345593  4.83487537  4.68854483  1
  Mo  Mo45  1  6.30862156  3.14027299  6.30414882  1
  Mo  Mo46  1  7.89985993  4.74313633  7.77593905  1
  Mo  Mo47  1  6.29908310  6.28233655  -0.02808382  1
  Mo  Mo48  1  7.86915170  7.88537235  1.54863122  1
  Mo  Mo49  1  6.25814225  6.31094307  3.10484884  1
  Mo  Mo50  1  7.88406964  7.91522813  4.71868507  1
  Mo  Mo51  1  6.26719633  6.26493951  6.30395209  1
  Mo  Mo52  1  7.89777274  7.93561739  7.84454039  1
