# generated using pymatgen
data_Mo
_symmetry_space_group_name_H-M   'P 1'
_cell_length_a   9.44236900
_cell_length_b   9.44236900
_cell_length_c   9.44236900
_cell_angle_alpha   90.00000000
_cell_angle_beta   90.00000000
_cell_angle_gamma   90.00000000
_symmetry_Int_Tables_number   1
_chemical_formula_structural   Mo
_chemical_formula_sum   Mo53
_cell_volume   841.86587335
_cell_formula_units_Z   53
loop_
 _symmetry_equiv_pos_site_id
 _symmetry_equiv_pos_as_xyz
  1  'x, y, z'
loop_
 _atom_site_type_symbol
 _atom_site_label
 _atom_site_symmetry_multiplicity
 _atom_site_fract_x
 _atom_site_fract_y
 _atom_site_fract_z
 _atom_site_occupancy
  Mo  Mo0  1  1.54545886  1.54153923  1.55507693  1
  Mo  Mo1  1  -0.00056998  0.05724128  3.06370148  1
  Mo  Mo2  1  1.58063007  1.51927550  4.73995915  1
  Mo  Mo3  1  -0.01260348  -0.04498268  6.30870466  1
  Mo  Mo4  1  1.51666771  1.47747765  7.91884966  1
  Mo  Mo5  1  0.02657437  3.10643611  0.01427540  1
  Mo  Mo6  1  1.59629002  4.78042422  1.56559108  1
  Mo  Mo7  1  -0.04537362  3.20685534  3.18811931  1
  Mo  Mo8  1  1.52764107  4.67719333  4.75055297  1
  Mo  Mo9  1  -0.03874963  3.14317455  6.29535537  1
  Mo  Mo10  1  1.53560128  4.65699204  7.92746635  1
  Mo  Mo11  1  0.06118967  6.32639269  -0.00007014  1
  Mo  Mo12  1  1.55554690  7.91292821  1.57604951  1
  Mo  Mo13  1  0.01457961  6.27288332  3.13435167  1
  Mo  Mo14  1  1.52218976  7.82127449  4.69478745  1
  Mo  Mo15  1  -0.09217821  6.25754237  6.24591218  1
  Mo  Mo16  1  1.57689537  7.81164348  7.85490890  1
  Mo  Mo17  1  3.15327168  -0.03420526  -0.06444444  1
  Mo  Mo18  1  4.67997312  1.54194056  1.57508890  1
  Mo  Mo19  1  3.15014021  0.02875601  3.10753603  1
  Mo  Mo20  1  4.75866952  1.55629351  4.72813834  1
  Mo  Mo21  1  3.16333249  -0.02400787  6.19882569  1
  Mo  Mo22  1  4.71349491  1.54266612  7.90388164  1
  Mo  Mo23  1  3.13525700  3.15354355  0.07601887  1
  Mo  Mo24  1  4.68188390  4.69277801  1.61181015  1
  Mo  Mo25  1  3.16031177  3.22409861  3.26283207  1
  Mo  Mo26  1  4.72753184  4.75108529  4.79443411  1
  Mo  Mo27  1  3.19262748  3.12272045  6.31418411  1
  Mo  Mo28  1  4.72805240  4.70349291  7.91764221  1
  Mo  Mo29  1  3.18431037  6.30600112  0.00758105  1
  Mo  Mo30  1  4.72198399  7.84011234  1.52787992  1
  Mo  Mo31  1  3.20701355  6.27628000  3.17893628  1
  Mo  Mo32  1  4.71599244  7.89396855  4.71618711  1
  Mo  Mo33  1  3.16076053  6.26311401  6.31998622  1
  Mo  Mo34  1  4.77299157  7.87691350  7.93372929  1
  Mo  Mo35  1  6.38044268  0.03029738  0.04688791  1
  Mo  Mo36  1  7.89725667  1.62326515  1.58374043  1
  Mo  Mo37  1  6.29125586  -0.01436261  3.15559444  1
  Mo  Mo38  1  7.85501931  1.61192349  4.70041882  1
  Mo  Mo39  1  6.28484712  0.04794693  6.30309219  1
  Mo  Mo40  1  7.96905139  1.55100161  7.87673743  1
  Mo  Mo41  1  6.23136368  3.11439885  0.03824647  1
  Mo  Mo42  1  7.85187938  4.77018469  1.43081670  1
  Mo  Mo43  1  6.22712235  3.15525276  3.16409828  1
  Mo  Mo44  1  7.88530199  4.72815192  4.65954389  1
  Mo  Mo45  1  6.24589815  3.19659156  6.28003606  1
  Mo  Mo46  1  7.83665390  4.72039677  7.86405561  1
  Mo  Mo47  1  6.29043907  6.25805544  0.01020536  1
  Mo  Mo48  1  7.95101066  7.96188129  1.43855091  1
  Mo  Mo49  1  6.28570968  6.25612375  3.12313374  1
  Mo  Mo50  1  7.85403880  7.94658122  4.67167739  1
  Mo  Mo51  1  6.29126668  6.34976980  6.27105449  1
  Mo  Mo52  1  7.94736148  7.90600977  7.89157770  1
