# generated using pymatgen
data_Mo
_symmetry_space_group_name_H-M   'P 1'
_cell_length_a   9.44236900
_cell_length_b   9.44236900
_cell_length_c   9.44236900
_cell_angle_alpha   90.00000000
_cell_angle_beta   90.00000000
_cell_angle_gamma   90.00000000
_symmetry_Int_Tables_number   1
_chemical_formula_structural   Mo
_chemical_formula_sum   Mo53
_cell_volume   841.86587335
_cell_formula_units_Z   53
loop_
 _symmetry_equiv_pos_site_id
 _symmetry_equiv_pos_as_xyz
  1  'x, y, z'
loop_
 _atom_site_type_symbol
 _atom_site_label
 _atom_site_symmetry_multiplicity
 _atom_site_fract_x
 _atom_site_fract_y
 _atom_site_fract_z
 _atom_site_occupancy
  Mo  Mo0  1  1.53233911  1.51309733  1.50873808  1
  Mo  Mo1  1  0.00375742  -0.03692389  3.04851902  1
  Mo  Mo2  1  1.53142018  1.49710225  4.69743176  1
  Mo  Mo3  1  -0.03501955  -0.01564032  6.37075961  1
  Mo  Mo4  1  1.55137676  1.51461042  7.85281839  1
  Mo  Mo5  1  -0.02247571  3.09948391  0.00270137  1
  Mo  Mo6  1  1.53064502  4.68030823  1.59452921  1
  Mo  Mo7  1  0.02167656  3.06611465  3.17003088  1
  Mo  Mo8  1  1.55338814  4.68726517  4.72577093  1
  Mo  Mo9  1  0.00403586  3.11250882  6.33670684  1
  Mo  Mo10  1  1.59314543  4.71720597  7.88883472  1
  Mo  Mo11  1  0.03640720  6.34788514  -0.01754650  1
  Mo  Mo12  1  1.54077350  7.87177149  1.48714638  1
  Mo  Mo13  1  -0.00619695  6.29246378  3.13274424  1
  Mo  Mo14  1  1.54348930  7.86040873  4.74880733  1
  Mo  Mo15  1  0.04128664  6.27181157  6.32100761  1
  Mo  Mo16  1  1.55803071  7.88272950  7.87746044  1
  Mo  Mo17  1  3.10744925  0.02679460  0.02346774  1
  Mo  Mo18  1  4.73431271  1.62398023  1.51732552  1
  Mo  Mo19  1  3.16464696  -0.02986610  3.14527129  1
  Mo  Mo20  1  4.66691898  1.58395102  4.70558850  1
  Mo  Mo21  1  3.13218109  0.02623039  6.32992604  1
  Mo  Mo22  1  4.71689610  1.59445690  7.80484464  1
  Mo  Mo23  1  3.17037239  3.18026226  -0.06688479  1
  Mo  Mo24  1  4.74019401  4.79599291  1.55837735  1
  Mo  Mo25  1  3.15227417  3.08726350  3.08237669  1
  Mo  Mo26  1  4.67899769  4.72323787  4.68299046  1
  Mo  Mo27  1  3.12129878  3.14503515  6.28860594  1
  Mo  Mo28  1  4.73860914  4.74389384  7.86140074  1
  Mo  Mo29  1  3.15739410  6.30679442  0.03738524  1
  Mo  Mo30  1  4.74126965  7.93715328  1.59518550  1
  Mo  Mo31  1  3.13764221  6.29101568  3.11406034  1
  Mo  Mo32  1  4.71432597  7.90135840  4.74439708  1
  Mo  Mo33  1  3.15866391  6.30764160  6.29315469  1
  Mo  Mo34  1  4.73600990  7.88399188  7.85257498  1
  Mo  Mo35  1  6.29162305  -0.00211322  0.01614494  1
  Mo  Mo36  1  7.84346900  1.56983689  1.53185201  1
  Mo  Mo37  1  6.30385219  0.06710860  3.20653230  1
  Mo  Mo38  1  7.88952855  1.52900742  4.73619007  1
  Mo  Mo39  1  6.27678697  -0.01577824  6.32575279  1
  Mo  Mo40  1  7.87365860  1.53705616  7.87153337  1
  Mo  Mo41  1  6.30371622  3.23839945  -0.00560617  1
  Mo  Mo42  1  7.89908922  4.73154007  1.65289703  1
  Mo  Mo43  1  6.30143378  3.17246387  3.16055074  1
  Mo  Mo44  1  7.88907002  4.72053690  4.76556736  1
  Mo  Mo45  1  6.30389951  3.14794805  6.30925457  1
  Mo  Mo46  1  7.95617350  4.73198379  7.83199965  1
  Mo  Mo47  1  6.32270173  6.33159463  0.01196332  1
  Mo  Mo48  1  7.91079805  7.88105651  1.59527407  1
  Mo  Mo49  1  6.28192908  6.34156198  3.17429314  1
  Mo  Mo50  1  7.87422451  7.82197480  4.76333483  1
  Mo  Mo51  1  6.27978330  6.25665827  6.30907433  1
  Mo  Mo52  1  7.90403343  7.90108584  7.88019078  1
