# generated using pymatgen
data_Mo
_symmetry_space_group_name_H-M   'P 1'
_cell_length_a   9.44236900
_cell_length_b   9.44236900
_cell_length_c   9.44236900
_cell_angle_alpha   90.00000000
_cell_angle_beta   90.00000000
_cell_angle_gamma   90.00000000
_symmetry_Int_Tables_number   1
_chemical_formula_structural   Mo
_chemical_formula_sum   Mo53
_cell_volume   841.86587335
_cell_formula_units_Z   53
loop_
 _symmetry_equiv_pos_site_id
 _symmetry_equiv_pos_as_xyz
  1  'x, y, z'
loop_
 _atom_site_type_symbol
 _atom_site_label
 _atom_site_symmetry_multiplicity
 _atom_site_fract_x
 _atom_site_fract_y
 _atom_site_fract_z
 _atom_site_occupancy
  Mo  Mo0  1  1.51733397  1.54270794  1.52375312  1
  Mo  Mo1  1  -0.00981739  -0.01895697  3.11116035  1
  Mo  Mo2  1  1.55978224  1.59016812  4.72376437  1
  Mo  Mo3  1  0.01545819  0.03614780  6.31773226  1
  Mo  Mo4  1  1.60202501  1.60453059  7.94933014  1
  Mo  Mo5  1  -0.00964564  3.12315009  -0.00040160  1
  Mo  Mo6  1  1.52090999  4.69555480  1.49291619  1
  Mo  Mo7  1  -0.04656866  3.13231944  3.16273121  1
  Mo  Mo8  1  1.58921959  4.75776480  4.65825862  1
  Mo  Mo9  1  0.02321452  3.18047737  6.32436857  1
  Mo  Mo10  1  1.58605054  4.78937163  7.85398602  1
  Mo  Mo11  1  -0.04349078  6.29136937  0.03731380  1
  Mo  Mo12  1  1.54044663  7.87590693  1.63393641  1
  Mo  Mo13  1  -0.00742411  6.23472945  3.16429728  1
  Mo  Mo14  1  1.61052108  7.96357247  4.76532258  1
  Mo  Mo15  1  0.04064631  6.33898166  6.25614413  1
  Mo  Mo16  1  1.53531742  7.93109501  7.96379843  1
  Mo  Mo17  1  3.16423649  -0.01250034  -0.00434991  1
  Mo  Mo18  1  4.72038188  1.55497027  1.53781916  1
  Mo  Mo19  1  3.17534955  -0.01020289  3.16144419  1
  Mo  Mo20  1  4.77394032  1.55178287  4.69146383  1
  Mo  Mo21  1  3.14387864  0.02871720  6.29353088  1
  Mo  Mo22  1  4.68669830  1.54336843  7.86317813  1
  Mo  Mo23  1  3.18165621  3.22588189  -0.01572931  1
  Mo  Mo24  1  4.73068343  4.67761896  1.54900947  1
  Mo  Mo25  1  3.16814232  3.16064514  3.09192190  1
  Mo  Mo26  1  4.72880935  4.72612412  4.71970723  1
  Mo  Mo27  1  3.16922382  3.20261757  6.17465755  1
  Mo  Mo28  1  4.76843807  4.70274408  7.85172460  1
  Mo  Mo29  1  3.14636905  6.28475838  -0.05781067  1
  Mo  Mo30  1  4.64931532  7.89205918  1.57695111  1
  Mo  Mo31  1  3.19463725  6.25496603  3.11302728  1
  Mo  Mo32  1  4.71221645  7.88608205  4.79662307  1
  Mo  Mo33  1  3.18111212  6.28275014  6.27815728  1
  Mo  Mo34  1  4.68365553  7.83777955  7.93593635  1
  Mo  Mo35  1  6.26460830  0.02296595  -0.01171766  1
  Mo  Mo36  1  7.92392132  1.47731640  1.54867017  1
  Mo  Mo37  1  6.30958722  -0.01565875  3.16305849  1
  Mo  Mo38  1  7.91060197  1.56388582  4.75795201  1
  Mo  Mo39  1  6.25286795  -0.00574121  6.25813247  1
  Mo  Mo40  1  7.81178508  1.52274186  7.85305923  1
  Mo  Mo41  1  6.31658478  3.18261395  -0.01536573  1
  Mo  Mo42  1  7.86266087  4.71110659  1.59067195  1
  Mo  Mo43  1  6.29612882  3.14627561  3.13508942  1
  Mo  Mo44  1  7.95129635  4.70543767  4.77481548  1
  Mo  Mo45  1  6.25023439  3.15638008  6.20760723  1
  Mo  Mo46  1  7.91350615  4.74171712  7.95131147  1
  Mo  Mo47  1  6.25504508  6.30342985  -0.01801720  1
  Mo  Mo48  1  7.79095112  7.85617255  1.62645796  1
  Mo  Mo49  1  6.21272958  6.25631983  3.17174218  1
  Mo  Mo50  1  7.92845219  7.88183786  4.79352762  1
  Mo  Mo51  1  6.29006436  6.24369282  6.26949804  1
  Mo  Mo52  1  7.90955882  7.84376518  7.90114018  1
