# generated using pymatgen
data_Mo
_symmetry_space_group_name_H-M   'P 1'
_cell_length_a   9.44236900
_cell_length_b   9.44236900
_cell_length_c   9.44236900
_cell_angle_alpha   90.00000000
_cell_angle_beta   90.00000000
_cell_angle_gamma   90.00000000
_symmetry_Int_Tables_number   1
_chemical_formula_structural   Mo
_chemical_formula_sum   Mo53
_cell_volume   841.86587335
_cell_formula_units_Z   53
loop_
 _symmetry_equiv_pos_site_id
 _symmetry_equiv_pos_as_xyz
  1  'x, y, z'
loop_
 _atom_site_type_symbol
 _atom_site_label
 _atom_site_symmetry_multiplicity
 _atom_site_fract_x
 _atom_site_fract_y
 _atom_site_fract_z
 _atom_site_occupancy
  Mo  Mo0  1  1.54716317  1.58387015  1.56499968  1
  Mo  Mo1  1  0.02364824  0.00286200  3.19731452  1
  Mo  Mo2  1  1.57009855  1.67382943  4.70877270  1
  Mo  Mo3  1  0.05578342  0.08032395  6.34425960  1
  Mo  Mo4  1  1.54464416  1.61212993  7.85539039  1
  Mo  Mo5  1  0.02776974  3.11908621  -0.00393469  1
  Mo  Mo6  1  1.55888478  4.74661763  1.52038426  1
  Mo  Mo7  1  0.01478785  3.15839527  3.12821122  1
  Mo  Mo8  1  1.55579321  4.76924358  4.72912347  1
  Mo  Mo9  1  0.00999931  3.24206911  6.25200780  1
  Mo  Mo10  1  1.53279994  4.72565036  7.88543901  1
  Mo  Mo11  1  -0.02982715  6.36248162  -0.01985493  1
  Mo  Mo12  1  1.58850444  7.90563541  1.60984085  1
  Mo  Mo13  1  -0.02790308  6.29996015  3.11522487  1
  Mo  Mo14  1  1.58619286  7.93451472  4.74771321  1
  Mo  Mo15  1  -0.01245285  6.35059292  6.26887980  1
  Mo  Mo16  1  1.51532823  7.92459407  7.98867781  1
  Mo  Mo17  1  3.03211004  0.00280764  0.05704662  1
  Mo  Mo18  1  4.74188393  1.52298693  1.52961120  1
  Mo  Mo19  1  3.13703521  0.03976851  3.18264187  1
  Mo  Mo20  1  4.69099940  1.53849935  4.69391901  1
  Mo  Mo21  1  3.17093825  -0.00274655  6.31282174  1
  Mo  Mo22  1  4.73115195  1.49664514  7.91006775  1
  Mo  Mo23  1  3.16495232  3.03539894  -0.00766072  1
  Mo  Mo24  1  4.70028371  4.71091493  1.52829950  1
  Mo  Mo25  1  3.12917567  3.17223178  3.17108350  1
  Mo  Mo26  1  4.79092612  4.68979616  4.67854489  1
  Mo  Mo27  1  3.16756174  3.15164361  6.32476828  1
  Mo  Mo28  1  4.69278597  4.69694193  7.87167198  1
  Mo  Mo29  1  3.09392334  6.26968928  -0.05246188  1
  Mo  Mo30  1  4.74449151  7.87864263  1.61095792  1
  Mo  Mo31  1  3.07429382  6.31484575  3.16839584  1
  Mo  Mo32  1  4.76442529  7.84220410  4.69464655  1
  Mo  Mo33  1  3.13138398  6.31455898  6.22492380  1
  Mo  Mo34  1  4.70003626  7.87955261  7.96751151  1
  Mo  Mo35  1  6.39368625  -0.03353154  -0.03655014  1
  Mo  Mo36  1  7.92839514  1.51445465  1.52388363  1
  Mo  Mo37  1  6.26095863  -0.05614071  3.07400186  1
  Mo  Mo38  1  7.85812044  1.51660332  4.64887690  1
  Mo  Mo39  1  6.32799483  -0.00287192  6.26042946  1
  Mo  Mo40  1  7.90293132  1.60722976  7.91171107  1
  Mo  Mo41  1  6.31456476  3.06801650  0.00445866  1
  Mo  Mo42  1  7.86188153  4.66204877  1.55662695  1
  Mo  Mo43  1  6.30299651  3.10521492  3.13263189  1
  Mo  Mo44  1  7.82372896  4.71226690  4.69876922  1
  Mo  Mo45  1  6.36111585  3.11629443  6.33053981  1
  Mo  Mo46  1  7.84004741  4.68541401  7.94082099  1
  Mo  Mo47  1  6.24754480  6.26549083  -0.02180709  1
  Mo  Mo48  1  7.86046693  7.87883138  1.58977982  1
  Mo  Mo49  1  6.35023024  6.24939129  3.12851200  1
  Mo  Mo50  1  7.92016123  7.90076058  4.70566827  1
  Mo  Mo51  1  6.34296921  6.35871710  6.27333354  1
  Mo  Mo52  1  7.83593997  7.85888386  7.97238157  1
