# generated using pymatgen
data_Mo
_symmetry_space_group_name_H-M   'P 1'
_cell_length_a   9.44236900
_cell_length_b   9.44236900
_cell_length_c   9.44236900
_cell_angle_alpha   90.00000000
_cell_angle_beta   90.00000000
_cell_angle_gamma   90.00000000
_symmetry_Int_Tables_number   1
_chemical_formula_structural   Mo
_chemical_formula_sum   Mo53
_cell_volume   841.86587335
_cell_formula_units_Z   53
loop_
 _symmetry_equiv_pos_site_id
 _symmetry_equiv_pos_as_xyz
  1  'x, y, z'
loop_
 _atom_site_type_symbol
 _atom_site_label
 _atom_site_symmetry_multiplicity
 _atom_site_fract_x
 _atom_site_fract_y
 _atom_site_fract_z
 _atom_site_occupancy
  Mo  Mo0  1  1.60305079  1.64645197  1.57063965  1
  Mo  Mo1  1  -0.02557995  0.01730988  3.07689680  1
  Mo  Mo2  1  1.50322096  1.56913676  4.73542035  1
  Mo  Mo3  1  -0.03772381  -0.01931105  6.27853557  1
  Mo  Mo4  1  1.52789404  1.50277679  7.80451666  1
  Mo  Mo5  1  0.02890519  3.11822389  0.00210675  1
  Mo  Mo6  1  1.61530278  4.74256319  1.55375110  1
  Mo  Mo7  1  -0.01602644  3.16685253  3.19327981  1
  Mo  Mo8  1  1.53614970  4.76721936  4.71645414  1
  Mo  Mo9  1  -0.01012997  3.16775462  6.27014375  1
  Mo  Mo10  1  1.47796115  4.73880226  7.84678917  1
  Mo  Mo11  1  0.01231006  6.30384051  -0.00914804  1
  Mo  Mo12  1  1.59003478  7.88429203  1.54456501  1
  Mo  Mo13  1  -0.00866036  6.30260294  3.17035275  1
  Mo  Mo14  1  1.55797998  7.89512166  4.78402914  1
  Mo  Mo15  1  -0.02934135  6.31599603  6.28107225  1
  Mo  Mo16  1  1.51728590  7.91095577  7.82241113  1
  Mo  Mo17  1  3.13108179  -0.04514543  0.00424829  1
  Mo  Mo18  1  4.73297303  1.58457250  1.50195283  1
  Mo  Mo19  1  3.09226035  -0.05094324  3.25734747  1
  Mo  Mo20  1  4.71090407  1.57393141  4.75733881  1
  Mo  Mo21  1  3.20295205  -0.02137792  6.33728170  1
  Mo  Mo22  1  4.73440400  1.50382147  7.85469695  1
  Mo  Mo23  1  3.13977873  3.14042992  0.02057071  1
  Mo  Mo24  1  4.73077347  4.71902540  1.58422670  1
  Mo  Mo25  1  3.18405899  3.15791277  3.19758264  1
  Mo  Mo26  1  4.66019651  4.72588082  4.76244623  1
  Mo  Mo27  1  3.18206608  3.14161686  6.29616718  1
  Mo  Mo28  1  4.66302076  4.71083142  7.92099526  1
  Mo  Mo29  1  3.12625171  6.26911569  0.05201640  1
  Mo  Mo30  1  4.75086280  7.89121941  1.49112294  1
  Mo  Mo31  1  3.21747960  6.29039634  3.17158454  1
  Mo  Mo32  1  4.74656031  7.90199315  4.71022653  1
  Mo  Mo33  1  3.19193138  6.28924817  6.34181263  1
  Mo  Mo34  1  4.70024870  7.85935256  7.85731443  1
  Mo  Mo35  1  6.30826844  0.00896572  0.03135857  1
  Mo  Mo36  1  7.94076061  1.56418407  1.51736236  1
  Mo  Mo37  1  6.27165519  0.04032461  3.17758021  1
  Mo  Mo38  1  7.85925181  1.54595315  4.69162181  1
  Mo  Mo39  1  6.35434946  0.02227950  6.26434711  1
  Mo  Mo40  1  7.91559810  1.51704439  7.86383344  1
  Mo  Mo41  1  6.29737508  3.19633118  0.03987544  1
  Mo  Mo42  1  7.96258964  4.71287882  1.55739970  1
  Mo  Mo43  1  6.25318282  3.13571452  3.17761044  1
  Mo  Mo44  1  7.88517938  4.69530295  4.69674216  1
  Mo  Mo45  1  6.27017518  3.16227372  6.28658358  1
  Mo  Mo46  1  7.81632714  4.74372472  7.88280933  1
  Mo  Mo47  1  6.28219921  6.30057285  0.00477852  1
  Mo  Mo48  1  8.04527151  7.89974383  1.51694653  1
  Mo  Mo49  1  6.26092379  6.30131554  3.11941550  1
  Mo  Mo50  1  7.88070458  7.80644516  4.71568885  1
  Mo  Mo51  1  6.22559354  6.25744660  6.29115473  1
  Mo  Mo52  1  7.88346407  7.87034056  7.85745088  1
