# generated using pymatgen
data_Mo
_symmetry_space_group_name_H-M   'P 1'
_cell_length_a   9.44236900
_cell_length_b   9.44236900
_cell_length_c   9.44236900
_cell_angle_alpha   90.00000000
_cell_angle_beta   90.00000000
_cell_angle_gamma   90.00000000
_symmetry_Int_Tables_number   1
_chemical_formula_structural   Mo
_chemical_formula_sum   Mo53
_cell_volume   841.86587335
_cell_formula_units_Z   53
loop_
 _symmetry_equiv_pos_site_id
 _symmetry_equiv_pos_as_xyz
  1  'x, y, z'
loop_
 _atom_site_type_symbol
 _atom_site_label
 _atom_site_symmetry_multiplicity
 _atom_site_fract_x
 _atom_site_fract_y
 _atom_site_fract_z
 _atom_site_occupancy
  Mo  Mo0  1  1.62261607  1.61977718  1.52567961  1
  Mo  Mo1  1  -0.03080971  -0.00523770  3.09853950  1
  Mo  Mo2  1  1.47397344  1.49927191  4.74561890  1
  Mo  Mo3  1  -0.04604016  -0.05570768  6.23866270  1
  Mo  Mo4  1  1.52398089  1.49975689  7.85319634  1
  Mo  Mo5  1  0.00671109  3.13473709  -0.00134139  1
  Mo  Mo6  1  1.58322557  4.72867116  1.54634234  1
  Mo  Mo7  1  -0.01188489  3.15511303  3.15571834  1
  Mo  Mo8  1  1.59078313  4.75788106  4.71780697  1
  Mo  Mo9  1  -0.01599976  3.11227254  6.33017569  1
  Mo  Mo10  1  1.48278515  4.73495824  7.82578948  1
  Mo  Mo11  1  -0.00506326  6.27413656  -0.00364472  1
  Mo  Mo12  1  1.58969044  7.86907682  1.54984616  1
  Mo  Mo13  1  0.03549069  6.26110967  3.16456954  1
  Mo  Mo14  1  1.53643280  7.89827741  4.72632534  1
  Mo  Mo15  1  -0.01439723  6.25998423  6.28120720  1
  Mo  Mo16  1  1.53999883  7.90747022  7.81788197  1
  Mo  Mo17  1  3.20664521  -0.03308195  -0.02642608  1
  Mo  Mo18  1  4.71309138  1.59315890  1.51913842  1
  Mo  Mo19  1  3.15529285  -0.03476117  3.20110458  1
  Mo  Mo20  1  4.72854954  1.55810994  4.73491090  1
  Mo  Mo21  1  3.19998543  -0.01201018  6.30078450  1
  Mo  Mo22  1  4.72824946  1.53214678  7.86423869  1
  Mo  Mo23  1  3.15313923  3.18401413  0.05109743  1
  Mo  Mo24  1  4.77715432  4.71707939  1.58544788  1
  Mo  Mo25  1  3.18348396  3.14365540  3.18156830  1
  Mo  Mo26  1  4.66106414  4.76067316  4.77567567  1
  Mo  Mo27  1  3.12370915  3.15469985  6.29095300  1
  Mo  Mo28  1  4.68158065  4.71017917  7.90968318  1
  Mo  Mo29  1  3.16088750  6.25761783  0.05343535  1
  Mo  Mo30  1  4.75194522  7.94429940  1.49716891  1
  Mo  Mo31  1  3.24411680  6.28391788  3.20602945  1
  Mo  Mo32  1  4.70357116  7.89928374  4.74629629  1
  Mo  Mo33  1  3.16187749  6.25962830  6.36621447  1
  Mo  Mo34  1  4.73738641  7.86840761  7.84979641  1
  Mo  Mo35  1  6.27458026  0.06258063  0.00460021  1
  Mo  Mo36  1  7.91979134  1.59409016  1.52108797  1
  Mo  Mo37  1  6.25990916  0.03858492  3.15766791  1
  Mo  Mo38  1  7.92241578  1.52929000  4.75233343  1
  Mo  Mo39  1  6.28461178  0.02243882  6.29985407  1
  Mo  Mo40  1  7.84801382  1.48496531  7.85630610  1
  Mo  Mo41  1  6.28877790  3.22622868  0.03126929  1
  Mo  Mo42  1  7.99835990  4.77045541  1.56591919  1
  Mo  Mo43  1  6.25540555  3.22198114  3.17552102  1
  Mo  Mo44  1  7.87366657  4.69713438  4.73293936  1
  Mo  Mo45  1  6.20056894  3.19808237  6.28448016  1
  Mo  Mo46  1  7.87993849  4.72175527  7.89699448  1
  Mo  Mo47  1  6.29035136  6.34449562  0.04003864  1
  Mo  Mo48  1  7.98983046  7.88977882  1.50401912  1
  Mo  Mo49  1  6.24223991  6.31881702  3.16646868  1
  Mo  Mo50  1  7.87534195  7.82795230  4.68099578  1
  Mo  Mo51  1  6.20227836  6.22297302  6.28402633  1
  Mo  Mo52  1  7.91400287  7.84314168  7.81929432  1
