# generated using pymatgen
data_Mo
_symmetry_space_group_name_H-M   'P 1'
_cell_length_a   9.44236900
_cell_length_b   9.44236900
_cell_length_c   9.44236900
_cell_angle_alpha   90.00000000
_cell_angle_beta   90.00000000
_cell_angle_gamma   90.00000000
_symmetry_Int_Tables_number   1
_chemical_formula_structural   Mo
_chemical_formula_sum   Mo53
_cell_volume   841.86587335
_cell_formula_units_Z   53
loop_
 _symmetry_equiv_pos_site_id
 _symmetry_equiv_pos_as_xyz
  1  'x, y, z'
loop_
 _atom_site_type_symbol
 _atom_site_label
 _atom_site_symmetry_multiplicity
 _atom_site_fract_x
 _atom_site_fract_y
 _atom_site_fract_z
 _atom_site_occupancy
  Mo  Mo0  1  1.58673369  1.54220210  1.49138342  1
  Mo  Mo1  1  -0.01269024  -0.02593248  3.09958344  1
  Mo  Mo2  1  1.50353341  1.50066988  4.72242769  1
  Mo  Mo3  1  -0.01078440  -0.05653781  6.30579013  1
  Mo  Mo4  1  1.51056411  1.51103581  7.91710990  1
  Mo  Mo5  1  -0.01526201  3.11015364  -0.01514451  1
  Mo  Mo6  1  1.55880158  4.72428822  1.54059256  1
  Mo  Mo7  1  0.01501034  3.12198963  3.11871601  1
  Mo  Mo8  1  1.59035078  4.69535854  4.72298838  1
  Mo  Mo9  1  -0.02185891  3.08303762  6.35174235  1
  Mo  Mo10  1  1.51080770  4.69813511  7.85057815  1
  Mo  Mo11  1  0.00915489  6.33219244  -0.01692607  1
  Mo  Mo12  1  1.58843969  7.87764316  1.53369291  1
  Mo  Mo13  1  0.04967836  6.25121309  3.13376111  1
  Mo  Mo14  1  1.53103305  7.88435424  4.65165164  1
  Mo  Mo15  1  -0.00345536  6.22906472  6.27118331  1
  Mo  Mo16  1  1.54951611  7.88658991  7.87116149  1
  Mo  Mo17  1  3.18230473  0.00330531  -0.02091644  1
  Mo  Mo18  1  4.73359734  1.59874581  1.58213611  1
  Mo  Mo19  1  3.21366654  0.02558360  3.10074322  1
  Mo  Mo20  1  4.72186723  1.56598262  4.69119268  1
  Mo  Mo21  1  3.16621432  0.00617882  6.28332701  1
  Mo  Mo22  1  4.70080046  1.59750778  7.88168765  1
  Mo  Mo23  1  3.17793518  3.16095848  0.03264204  1
  Mo  Mo24  1  4.79336578  4.76320664  1.58638180  1
  Mo  Mo25  1  3.15691369  3.13309096  3.16170517  1
  Mo  Mo26  1  4.71565736  4.73238205  4.73497722  1
  Mo  Mo27  1  3.07252173  3.13885126  6.32163621  1
  Mo  Mo28  1  4.70912693  4.71239774  7.89778246  1
  Mo  Mo29  1  3.18641290  6.26525510  0.03555534  1
  Mo  Mo30  1  4.75738409  7.95024693  1.57328019  1
  Mo  Mo31  1  3.18252325  6.30268832  3.19659224  1
  Mo  Mo32  1  4.69195320  7.88304438  4.75712301  1
  Mo  Mo33  1  3.10255224  6.28801542  6.34262637  1
  Mo  Mo34  1  4.76547362  7.86942281  7.87190252  1
  Mo  Mo35  1  6.30756063  0.06964476  -0.03834044  1
  Mo  Mo36  1  7.88402455  1.61194957  1.55990957  1
  Mo  Mo37  1  6.24755655  0.03507468  3.09239093  1
  Mo  Mo38  1  7.92270361  1.52538890  4.75341479  1
  Mo  Mo39  1  6.22091777  -0.00709928  6.29333040  1
  Mo  Mo40  1  7.82849092  1.51114368  7.87963994  1
  Mo  Mo41  1  6.27623784  3.19891775  0.00657737  1
  Mo  Mo42  1  7.97090531  4.78901099  1.60461776  1
  Mo  Mo43  1  6.29542217  3.24162624  3.17287458  1
  Mo  Mo44  1  7.87890396  4.70052830  4.76329042  1
  Mo  Mo45  1  6.19784422  3.17923818  6.31821863  1
  Mo  Mo46  1  7.93177058  4.67966746  7.90364484  1
  Mo  Mo47  1  6.27593306  6.36450295  0.04517488  1
  Mo  Mo48  1  7.89392809  7.89628918  1.52733158  1
  Mo  Mo49  1  6.27906136  6.33312564  3.20417157  1
  Mo  Mo50  1  7.88654968  7.85669336  4.65436679  1
  Mo  Mo51  1  6.25839621  6.27213198  6.30651888  1
  Mo  Mo52  1  7.92725750  7.83315615  7.82550815  1
