# generated using pymatgen
data_Mo
_symmetry_space_group_name_H-M   'P 1'
_cell_length_a   9.44236900
_cell_length_b   9.44236900
_cell_length_c   9.44236900
_cell_angle_alpha   90.00000000
_cell_angle_beta   90.00000000
_cell_angle_gamma   90.00000000
_symmetry_Int_Tables_number   1
_chemical_formula_structural   Mo
_chemical_formula_sum   Mo53
_cell_volume   841.86587335
_cell_formula_units_Z   53
loop_
 _symmetry_equiv_pos_site_id
 _symmetry_equiv_pos_as_xyz
  1  'x, y, z'
loop_
 _atom_site_type_symbol
 _atom_site_label
 _atom_site_symmetry_multiplicity
 _atom_site_fract_x
 _atom_site_fract_y
 _atom_site_fract_z
 _atom_site_occupancy
  Mo  Mo0  1  1.50898782  1.52202361  1.54473315  1
  Mo  Mo1  1  0.01567514  0.01267220  3.14369993  1
  Mo  Mo2  1  1.59061009  1.51743223  4.72035283  1
  Mo  Mo3  1  0.01336276  0.02601429  6.32829453  1
  Mo  Mo4  1  1.55045879  1.55100520  7.95097279  1
  Mo  Mo5  1  -0.02340892  3.13207522  0.03995108  1
  Mo  Mo6  1  1.49647767  4.68645481  1.52708067  1
  Mo  Mo7  1  -0.04251974  3.14259650  3.15953446  1
  Mo  Mo8  1  1.50929600  4.69932019  4.68168071  1
  Mo  Mo9  1  0.00434654  3.14314139  6.27882007  1
  Mo  Mo10  1  1.59926465  4.68470311  7.91992943  1
  Mo  Mo11  1  -0.01168621  6.30527827  0.01005182  1
  Mo  Mo12  1  1.49197415  7.89582817  1.54719398  1
  Mo  Mo13  1  -0.06748458  6.33873405  3.11989326  1
  Mo  Mo14  1  1.53088022  7.84484237  4.74891793  1
  Mo  Mo15  1  0.03516475  6.34641656  6.33091219  1
  Mo  Mo16  1  1.59517938  7.84811887  7.87715726  1
  Mo  Mo17  1  3.15940179  -0.00801071  -0.00011326  1
  Mo  Mo18  1  4.68899511  1.56407654  1.51239759  1
  Mo  Mo19  1  3.15157420  0.02423028  3.17009152  1
  Mo  Mo20  1  4.72634635  1.57870606  4.73763696  1
  Mo  Mo21  1  3.14747225  0.03324977  6.28256013  1
  Mo  Mo22  1  4.72536165  1.50843354  7.87546121  1
  Mo  Mo23  1  3.14256230  3.17564492  -0.02079861  1
  Mo  Mo24  1  4.68685610  4.68008547  1.57993275  1
  Mo  Mo25  1  3.17437921  3.19576155  3.10447010  1
  Mo  Mo26  1  4.72980257  4.75791182  4.76401421  1
  Mo  Mo27  1  3.20872008  3.18687450  6.25033230  1
  Mo  Mo28  1  4.78068908  4.73848137  7.85657805  1
  Mo  Mo29  1  3.17338920  6.31782343  -0.03790413  1
  Mo  Mo30  1  4.69047995  7.83408852  1.55570573  1
  Mo  Mo31  1  3.11462504  6.29800439  3.10339538  1
  Mo  Mo32  1  4.73079252  7.88901138  4.68244079  1
  Mo  Mo33  1  3.21964528  6.27691555  6.22443448  1
  Mo  Mo34  1  4.70865013  7.89703705  7.87306676  1
  Mo  Mo35  1  6.21751909  -0.06771253  0.00718401  1
  Mo  Mo36  1  7.85857446  1.56995723  1.62267613  1
  Mo  Mo37  1  6.30846336  -0.04979933  3.22883961  1
  Mo  Mo38  1  7.94933478  1.56037019  4.74193666  1
  Mo  Mo39  1  6.28924911  0.01557074  6.26223967  1
  Mo  Mo40  1  7.93467669  1.59956425  7.86828315  1
  Mo  Mo41  1  6.25173307  3.12368696  -0.01655713  1
  Mo  Mo42  1  7.85810200  4.71154374  1.54342028  1
  Mo  Mo43  1  6.25295457  3.12216729  3.16060818  1
  Mo  Mo44  1  7.90328272  4.73001302  4.71545229  1
  Mo  Mo45  1  6.32542921  3.14545399  6.26221280  1
  Mo  Mo46  1  7.94068608  4.79660103  7.88545394  1
  Mo  Mo47  1  6.32590769  6.22505927  -0.02416904  1
  Mo  Mo48  1  7.88871987  7.87779581  1.57065116  1
  Mo  Mo49  1  6.25419855  6.25968213  3.15781224  1
  Mo  Mo50  1  7.93751190  7.92190646  4.80209355  1
  Mo  Mo51  1  6.30286020  6.30747450  6.26369200  1
  Mo  Mo52  1  7.89778264  7.95899514  7.95859982  1
