# generated using pymatgen
data_Mo
_symmetry_space_group_name_H-M   'P 1'
_cell_length_a   9.44236900
_cell_length_b   9.44236900
_cell_length_c   9.44236900
_cell_angle_alpha   90.00000000
_cell_angle_beta   90.00000000
_cell_angle_gamma   90.00000000
_symmetry_Int_Tables_number   1
_chemical_formula_structural   Mo
_chemical_formula_sum   Mo53
_cell_volume   841.86587335
_cell_formula_units_Z   53
loop_
 _symmetry_equiv_pos_site_id
 _symmetry_equiv_pos_as_xyz
  1  'x, y, z'
loop_
 _atom_site_type_symbol
 _atom_site_label
 _atom_site_symmetry_multiplicity
 _atom_site_fract_x
 _atom_site_fract_y
 _atom_site_fract_z
 _atom_site_occupancy
  Mo  Mo0  1  1.55162393  1.59762672  1.56817709  1
  Mo  Mo1  1  0.00452749  -0.00828922  3.17161162  1
  Mo  Mo2  1  1.58322902  1.56442562  4.74420773  1
  Mo  Mo3  1  0.01958516  0.01340868  6.34226505  1
  Mo  Mo4  1  1.65175745  1.57113875  7.85048615  1
  Mo  Mo5  1  -0.01937392  3.11011202  -0.04312563  1
  Mo  Mo6  1  1.46862621  4.76593431  1.63481215  1
  Mo  Mo7  1  -0.04587905  3.17263992  3.16788168  1
  Mo  Mo8  1  1.60371094  4.78577121  4.75478646  1
  Mo  Mo9  1  0.06357347  3.25119674  6.29653860  1
  Mo  Mo10  1  1.59632172  4.76164745  7.86396732  1
  Mo  Mo11  1  0.03437100  6.33430654  -0.01464415  1
  Mo  Mo12  1  1.48595236  7.86920769  1.62879203  1
  Mo  Mo13  1  0.01962951  6.23758963  3.21722792  1
  Mo  Mo14  1  1.52662447  7.86373127  4.75878926  1
  Mo  Mo15  1  -0.01768758  6.29133594  6.28796354  1
  Mo  Mo16  1  1.53999411  7.91260454  7.90613405  1
  Mo  Mo17  1  3.05907706  -0.01677134  -0.02582540  1
  Mo  Mo18  1  4.63128814  1.44667276  1.56698642  1
  Mo  Mo19  1  3.19198394  -0.05249977  3.17265099  1
  Mo  Mo20  1  4.78329033  1.54008636  4.70875327  1
  Mo  Mo21  1  3.19886454  0.00254615  6.26144905  1
  Mo  Mo22  1  4.76626494  1.55352445  7.85689125  1
  Mo  Mo23  1  3.10798141  3.17193203  -0.02908994  1
  Mo  Mo24  1  4.68660737  4.66880477  1.46342334  1
  Mo  Mo25  1  3.09853163  3.10894744  3.20275807  1
  Mo  Mo26  1  4.70229539  4.70262960  4.61787356  1
  Mo  Mo27  1  3.18892199  3.18161357  6.25759604  1
  Mo  Mo28  1  4.75818953  4.66480703  7.85696549  1
  Mo  Mo29  1  3.17117255  6.25409323  -0.04203936  1
  Mo  Mo30  1  4.67813102  7.87980308  1.52760588  1
  Mo  Mo31  1  3.18112155  6.28668087  3.14684665  1
  Mo  Mo32  1  4.70016367  7.86982772  4.75946370  1
  Mo  Mo33  1  3.16220548  6.30725239  6.32429595  1
  Mo  Mo34  1  4.75437744  7.82829629  7.88450277  1
  Mo  Mo35  1  6.36139950  -0.00587594  0.08861126  1
  Mo  Mo36  1  7.89668129  1.52988966  1.49855181  1
  Mo  Mo37  1  6.30322407  -0.04609562  3.17838674  1
  Mo  Mo38  1  7.95987212  1.66059232  4.74975635  1
  Mo  Mo39  1  6.31312054  0.01127010  6.41231241  1
  Mo  Mo40  1  7.90568807  1.56222239  7.88652460  1
  Mo  Mo41  1  6.27932016  3.05746204  -0.01804161  1
  Mo  Mo42  1  7.82857927  4.72372756  1.51416009  1
  Mo  Mo43  1  6.22902134  3.13462491  3.11570359  1
  Mo  Mo44  1  7.84031481  4.79664971  4.70599793  1
  Mo  Mo45  1  6.31776422  3.22794458  6.26185770  1
  Mo  Mo46  1  7.94720262  4.71982752  7.83779256  1
  Mo  Mo47  1  6.28460191  6.25956646  -0.00726295  1
  Mo  Mo48  1  7.86773144  7.89890604  1.55891106  1
  Mo  Mo49  1  6.25157091  6.26234647  3.08425816  1
  Mo  Mo50  1  7.78950559  7.90742398  4.73241156  1
  Mo  Mo51  1  6.27913627  6.30769639  6.27012927  1
  Mo  Mo52  1  7.91151900  7.95249932  7.93626825  1
