# generated using pymatgen
data_Mo
_symmetry_space_group_name_H-M   'P 1'
_cell_length_a   9.44236900
_cell_length_b   9.44236900
_cell_length_c   9.44236900
_cell_angle_alpha   90.00000000
_cell_angle_beta   90.00000000
_cell_angle_gamma   90.00000000
_symmetry_Int_Tables_number   1
_chemical_formula_structural   Mo
_chemical_formula_sum   Mo53
_cell_volume   841.86587335
_cell_formula_units_Z   53
loop_
 _symmetry_equiv_pos_site_id
 _symmetry_equiv_pos_as_xyz
  1  'x, y, z'
loop_
 _atom_site_type_symbol
 _atom_site_label
 _atom_site_symmetry_multiplicity
 _atom_site_fract_x
 _atom_site_fract_y
 _atom_site_fract_z
 _atom_site_occupancy
  Mo  Mo0  1  1.49520556  1.56109063  1.59536419  1
  Mo  Mo1  1  0.01356513  -0.00591841  3.12112709  1
  Mo  Mo2  1  1.59087257  1.56805326  4.70997562  1
  Mo  Mo3  1  -0.00234419  0.02413601  6.36012328  1
  Mo  Mo4  1  1.63634408  1.56705524  7.79091453  1
  Mo  Mo5  1  0.01003502  3.10898425  -0.03155244  1
  Mo  Mo6  1  1.52005345  4.75921664  1.63651506  1
  Mo  Mo7  1  0.02263707  3.14130251  3.17673636  1
  Mo  Mo8  1  1.59270476  4.71467052  4.78088246  1
  Mo  Mo9  1  0.02457929  3.21136353  6.25955817  1
  Mo  Mo10  1  1.58891575  4.77872985  7.94059250  1
  Mo  Mo11  1  0.03786762  6.36302950  0.01010963  1
  Mo  Mo12  1  1.52484601  7.88750468  1.60933970  1
  Mo  Mo13  1  0.02620700  6.25257110  3.21051017  1
  Mo  Mo14  1  1.51863042  7.91781421  4.71940497  1
  Mo  Mo15  1  -0.05749763  6.29993736  6.27532096  1
  Mo  Mo16  1  1.51507427  7.91055900  7.93887218  1
  Mo  Mo17  1  3.03870115  0.00602502  -0.01509930  1
  Mo  Mo18  1  4.69875445  1.50627624  1.58407883  1
  Mo  Mo19  1  3.16472479  -0.05108173  3.13287382  1
  Mo  Mo20  1  4.78851480  1.54108162  4.70973879  1
  Mo  Mo21  1  3.17123388  -0.01818499  6.28674889  1
  Mo  Mo22  1  4.75718306  1.54842776  7.89279012  1
  Mo  Mo23  1  3.08764473  3.13205780  -0.00043573  1
  Mo  Mo24  1  4.66441429  4.70431390  1.49606692  1
  Mo  Mo25  1  3.09394985  3.10375436  3.17287882  1
  Mo  Mo26  1  4.71361610  4.66458780  4.58877933  1
  Mo  Mo27  1  3.17437814  3.12285284  6.29682665  1
  Mo  Mo28  1  4.74343389  4.68810428  7.85426182  1
  Mo  Mo29  1  3.17238779  6.28698686  -0.02376607  1
  Mo  Mo30  1  4.69613359  7.88597304  1.54961580  1
  Mo  Mo31  1  3.16919597  6.27619035  3.15758526  1
  Mo  Mo32  1  4.70834325  7.86558849  4.75029800  1
  Mo  Mo33  1  3.12150955  6.33008904  6.34811883  1
  Mo  Mo34  1  4.74440777  7.85441940  7.97300016  1
  Mo  Mo35  1  6.38794379  -0.01852107  0.01780442  1
  Mo  Mo36  1  7.93554905  1.56203139  1.51333587  1
  Mo  Mo37  1  6.32770618  0.02193698  3.16326264  1
  Mo  Mo38  1  7.90531768  1.64023987  4.69245583  1
  Mo  Mo39  1  6.28259178  0.01284721  6.37472027  1
  Mo  Mo40  1  7.93507312  1.56147252  7.87928898  1
  Mo  Mo41  1  6.26905275  3.09142061  0.00485775  1
  Mo  Mo42  1  7.83462460  4.70968744  1.47358403  1
  Mo  Mo43  1  6.30690492  3.11784605  3.08999643  1
  Mo  Mo44  1  7.84726455  4.76351197  4.67926970  1
  Mo  Mo45  1  6.30626035  3.17359021  6.27065571  1
  Mo  Mo46  1  7.90931863  4.69694094  7.85713023  1
  Mo  Mo47  1  6.30439984  6.26698487  -0.02827249  1
  Mo  Mo48  1  7.84840328  7.90281429  1.58197474  1
  Mo  Mo49  1  6.30131102  6.30155467  3.09867684  1
  Mo  Mo50  1  7.78202429  7.93947116  4.68911855  1
  Mo  Mo51  1  6.27645905  6.30595510  6.33466056  1
  Mo  Mo52  1  7.92687926  7.89596620  7.90263190  1
