# generated using pymatgen
data_Mo
_symmetry_space_group_name_H-M   'P 1'
_cell_length_a   9.44236900
_cell_length_b   9.44236900
_cell_length_c   9.44236900
_cell_angle_alpha   90.00000000
_cell_angle_beta   90.00000000
_cell_angle_gamma   90.00000000
_symmetry_Int_Tables_number   1
_chemical_formula_structural   Mo
_chemical_formula_sum   Mo53
_cell_volume   841.86587335
_cell_formula_units_Z   53
loop_
 _symmetry_equiv_pos_site_id
 _symmetry_equiv_pos_as_xyz
  1  'x, y, z'
loop_
 _atom_site_type_symbol
 _atom_site_label
 _atom_site_symmetry_multiplicity
 _atom_site_fract_x
 _atom_site_fract_y
 _atom_site_fract_z
 _atom_site_occupancy
  Mo  Mo0  1  1.46739632  1.50364707  1.58231165  1
  Mo  Mo1  1  0.00942408  -0.00011705  3.10130874  1
  Mo  Mo2  1  1.59617644  1.52015698  4.66908821  1
  Mo  Mo3  1  -0.03893425  0.02857831  6.29533742  1
  Mo  Mo4  1  1.58133036  1.57452724  7.80135378  1
  Mo  Mo5  1  0.02574657  3.14003446  0.00634654  1
  Mo  Mo6  1  1.56349472  4.71361767  1.59820709  1
  Mo  Mo7  1  0.06862545  3.12723289  3.17755581  1
  Mo  Mo8  1  1.56175928  4.67250446  4.77915244  1
  Mo  Mo9  1  -0.04126102  3.14842692  6.25643977  1
  Mo  Mo10  1  1.57025007  4.75955966  7.99872724  1
  Mo  Mo11  1  0.00199519  6.33365419  0.04386214  1
  Mo  Mo12  1  1.57093767  7.91048770  1.56420964  1
  Mo  Mo13  1  0.01535746  6.29304417  3.16642141  1
  Mo  Mo14  1  1.50826867  7.92076419  4.71013814  1
  Mo  Mo15  1  -0.05013141  6.31951640  6.27967031  1
  Mo  Mo16  1  1.51860891  7.88942948  7.95423272  1
  Mo  Mo17  1  3.09638263  0.03515869  0.02149775  1
  Mo  Mo18  1  4.76314123  1.59669964  1.54406257  1
  Mo  Mo19  1  3.15196626  -0.01677898  3.11917606  1
  Mo  Mo20  1  4.74788939  1.54714371  4.70825918  1
  Mo  Mo21  1  3.13224526  -0.03300107  6.29911104  1
  Mo  Mo22  1  4.74908619  1.50987924  7.94223430  1
  Mo  Mo23  1  3.08222171  3.11513064  0.03182573  1
  Mo  Mo24  1  4.67246599  4.72610561  1.57481204  1
  Mo  Mo25  1  3.16146126  3.12410253  3.11625576  1
  Mo  Mo26  1  4.73527203  4.68440475  4.67002465  1
  Mo  Mo27  1  3.17045828  3.10778323  6.31531204  1
  Mo  Mo28  1  4.72054212  4.72471330  7.86494488  1
  Mo  Mo29  1  3.14356259  6.34890835  0.01450109  1
  Mo  Mo30  1  4.72210026  7.91760315  1.57887762  1
  Mo  Mo31  1  3.14669870  6.26203537  3.17814916  1
  Mo  Mo32  1  4.70718414  7.87286650  4.72200211  1
  Mo  Mo33  1  3.12269772  6.30597706  6.30331752  1
  Mo  Mo34  1  4.71299133  7.90452316  8.00889454  1
  Mo  Mo35  1  6.34660387  -0.02646186  -0.03813453  1
  Mo  Mo36  1  7.95227558  1.60927465  1.53249820  1
  Mo  Mo37  1  6.32861908  0.06422717  3.17057308  1
  Mo  Mo38  1  7.86680513  1.57156114  4.64634452  1
  Mo  Mo39  1  6.25966484  0.00923807  6.29492887  1
  Mo  Mo40  1  7.95597655  1.57256086  7.85796899  1
  Mo  Mo41  1  6.25133524  3.14659155  -0.00182465  1
  Mo  Mo42  1  7.88849547  4.69554509  1.47064567  1
  Mo  Mo43  1  6.36617144  3.14021613  3.09376680  1
  Mo  Mo44  1  7.86513453  4.71335407  4.65997382  1
  Mo  Mo45  1  6.29156991  3.10501000  6.27587023  1
  Mo  Mo46  1  7.88436739  4.70597524  7.87318123  1
  Mo  Mo47  1  6.33759238  6.26443099  -0.03932938  1
  Mo  Mo48  1  7.84435471  7.88392527  1.59086662  1
  Mo  Mo49  1  6.33610739  6.31901111  3.15488348  1
  Mo  Mo50  1  7.83044351  7.96563392  4.70059322  1
  Mo  Mo51  1  6.26231075  6.27314691  6.33085112  1
  Mo  Mo52  1  7.91806802  7.85175239  7.88202900  1
