# generated using pymatgen
data_Mo
_symmetry_space_group_name_H-M   'P 1'
_cell_length_a   9.44236900
_cell_length_b   9.44236900
_cell_length_c   9.44236900
_cell_angle_alpha   90.00000000
_cell_angle_beta   90.00000000
_cell_angle_gamma   90.00000000
_symmetry_Int_Tables_number   1
_chemical_formula_structural   Mo
_chemical_formula_sum   Mo53
_cell_volume   841.86587335
_cell_formula_units_Z   53
loop_
 _symmetry_equiv_pos_site_id
 _symmetry_equiv_pos_as_xyz
  1  'x, y, z'
loop_
 _atom_site_type_symbol
 _atom_site_label
 _atom_site_symmetry_multiplicity
 _atom_site_fract_x
 _atom_site_fract_y
 _atom_site_fract_z
 _atom_site_occupancy
  Mo  Mo0  1  1.59936554  1.49952880  1.44432454  1
  Mo  Mo1  1  -0.02335735  -0.03982744  3.11267914  1
  Mo  Mo2  1  1.57661540  1.50111201  4.68382168  1
  Mo  Mo3  1  -0.02898859  -0.02122073  6.26330841  1
  Mo  Mo4  1  1.52957174  1.54277845  7.96633266  1
  Mo  Mo5  1  -0.03867532  3.11918212  0.00285131  1
  Mo  Mo6  1  1.57889789  4.67889170  1.56804626  1
  Mo  Mo7  1  0.02180820  3.13491206  3.17081431  1
  Mo  Mo8  1  1.57111078  4.69010594  4.71263958  1
  Mo  Mo9  1  -0.03945335  3.14122178  6.31335047  1
  Mo  Mo10  1  1.54238974  4.69921397  7.90496190  1
  Mo  Mo11  1  -0.01457890  6.29771759  -0.02321355  1
  Mo  Mo12  1  1.55915167  7.91399189  1.54434767  1
  Mo  Mo13  1  0.02317945  6.27695268  3.12186456  1
  Mo  Mo14  1  1.54479019  7.78574395  4.72302241  1
  Mo  Mo15  1  0.02989755  6.28619300  6.26991229  1
  Mo  Mo16  1  1.55360382  7.87776523  7.92861326  1
  Mo  Mo17  1  3.18014415  0.02477244  -0.00649312  1
  Mo  Mo18  1  4.76323544  1.65975315  1.48875811  1
  Mo  Mo19  1  3.18782562  0.03955243  3.15126948  1
  Mo  Mo20  1  4.67841499  1.57656434  4.70481997  1
  Mo  Mo21  1  3.08421354  0.00103793  6.25725749  1
  Mo  Mo22  1  4.70456244  1.53702400  7.87161096  1
  Mo  Mo23  1  3.16831230  3.22380035  -0.00529218  1
  Mo  Mo24  1  4.79064325  4.80832966  1.59998898  1
  Mo  Mo25  1  3.23756885  3.18321848  3.18893618  1
  Mo  Mo26  1  4.73840846  4.72936666  4.84417374  1
  Mo  Mo27  1  3.08922749  3.15087679  6.27489034  1
  Mo  Mo28  1  4.67186108  4.73692111  7.95626815  1
  Mo  Mo29  1  3.16258081  6.32982507  0.04456218  1
  Mo  Mo30  1  4.74443290  7.96522555  1.60415522  1
  Mo  Mo31  1  3.15084264  6.28693526  3.18579082  1
  Mo  Mo32  1  4.68275811  7.88806781  4.74269966  1
  Mo  Mo33  1  3.13716917  6.24607785  6.25991650  1
  Mo  Mo34  1  4.70865104  7.86291735  7.86381079  1
  Mo  Mo35  1  6.35962404  0.02025527  0.02074264  1
  Mo  Mo36  1  7.88282991  1.58490095  1.47385874  1
  Mo  Mo37  1  6.26234559  -0.01989994  3.14831027  1
  Mo  Mo38  1  7.90568283  1.55646033  4.70518960  1
  Mo  Mo39  1  6.24755457  -0.05335929  6.25801551  1
  Mo  Mo40  1  7.85608369  1.51971519  7.86832647  1
  Mo  Mo41  1  6.30086573  3.20261687  -0.06136016  1
  Mo  Mo42  1  7.92961130  4.74092668  1.60686574  1
  Mo  Mo43  1  6.28904748  3.22177761  3.19340018  1
  Mo  Mo44  1  7.93892585  4.71279233  4.75099058  1
  Mo  Mo45  1  6.24169581  3.11800054  6.27352168  1
  Mo  Mo46  1  7.89355591  4.73396479  7.85050871  1
  Mo  Mo47  1  6.27359219  6.29170723  0.01989487  1
  Mo  Mo48  1  7.86891902  7.88640600  1.53248432  1
  Mo  Mo49  1  6.28270439  6.29417899  3.21476650  1
  Mo  Mo50  1  7.89576201  7.85205864  4.75109110  1
  Mo  Mo51  1  6.28602358  6.25824762  6.22479345  1
  Mo  Mo52  1  7.87230281  7.89803336  7.88710701  1
