# generated using pymatgen
data_Mo
_symmetry_space_group_name_H-M   'P 1'
_cell_length_a   9.44236900
_cell_length_b   9.44236900
_cell_length_c   9.44236900
_cell_angle_alpha   90.00000000
_cell_angle_beta   90.00000000
_cell_angle_gamma   90.00000000
_symmetry_Int_Tables_number   1
_chemical_formula_structural   Mo
_chemical_formula_sum   Mo53
_cell_volume   841.86587335
_cell_formula_units_Z   53
loop_
 _symmetry_equiv_pos_site_id
 _symmetry_equiv_pos_as_xyz
  1  'x, y, z'
loop_
 _atom_site_type_symbol
 _atom_site_label
 _atom_site_symmetry_multiplicity
 _atom_site_fract_x
 _atom_site_fract_y
 _atom_site_fract_z
 _atom_site_occupancy
  Mo  Mo0  1  1.64415071  1.65655511  1.51052606  1
  Mo  Mo1  1  -0.00621469  -0.01801011  3.13783339  1
  Mo  Mo2  1  1.50410458  1.54109596  4.74520973  1
  Mo  Mo3  1  0.02441157  -0.00487400  6.38966938  1
  Mo  Mo4  1  1.53019234  1.45555157  7.92792558  1
  Mo  Mo5  1  -0.03072071  3.09616700  -0.00357589  1
  Mo  Mo6  1  1.57248535  4.74816959  1.48128788  1
  Mo  Mo7  1  -0.05823890  3.06946909  3.13010919  1
  Mo  Mo8  1  1.58237541  4.69229058  4.67378622  1
  Mo  Mo9  1  0.02925629  3.14789336  6.30713152  1
  Mo  Mo10  1  1.50974998  4.68177340  7.86191520  1
  Mo  Mo11  1  0.01965203  6.35725919  -0.04325140  1
  Mo  Mo12  1  1.52832141  7.86912984  1.53264991  1
  Mo  Mo13  1  0.00793537  6.22458569  3.11845582  1
  Mo  Mo14  1  1.55917399  7.89242151  4.69279311  1
  Mo  Mo15  1  0.03223591  6.30029936  6.25777108  1
  Mo  Mo16  1  1.55957410  7.85387052  7.83941675  1
  Mo  Mo17  1  3.14929515  -0.03887658  -0.05225254  1
  Mo  Mo18  1  4.72582792  1.61227378  1.51137348  1
  Mo  Mo19  1  3.08717073  0.00396786  3.14929195  1
  Mo  Mo20  1  4.75369805  1.56080530  4.71464361  1
  Mo  Mo21  1  3.16433682  0.03331455  6.26441675  1
  Mo  Mo22  1  4.69317573  1.56222153  7.78728693  1
  Mo  Mo23  1  3.17633746  3.17924710  0.01578975  1
  Mo  Mo24  1  4.73426383  4.75830169  1.57061801  1
  Mo  Mo25  1  3.09113820  3.16631832  3.15155421  1
  Mo  Mo26  1  4.70078088  4.72794301  4.68121890  1
  Mo  Mo27  1  3.11253745  3.14480674  6.31457346  1
  Mo  Mo28  1  4.76597096  4.70794095  7.84912716  1
  Mo  Mo29  1  3.17848496  6.28340597  -0.00349541  1
  Mo  Mo30  1  4.70070478  7.92487295  1.52652647  1
  Mo  Mo31  1  3.17563491  6.32818308  3.14302633  1
  Mo  Mo32  1  4.71882092  7.86104849  4.73953309  1
  Mo  Mo33  1  3.14718770  6.32122583  6.35670711  1
  Mo  Mo34  1  4.73397436  7.83541426  7.89051678  1
  Mo  Mo35  1  6.26973174  -0.02443564  -0.04784354  1
  Mo  Mo36  1  7.85990413  1.56510933  1.61421405  1
  Mo  Mo37  1  6.27469308  -0.02265643  3.17377882  1
  Mo  Mo38  1  7.91402272  1.55975978  4.77926760  1
  Mo  Mo39  1  6.30504447  0.00501961  6.24961810  1
  Mo  Mo40  1  7.84469816  1.51047872  7.90242015  1
  Mo  Mo41  1  6.29114467  3.13161542  0.06115274  1
  Mo  Mo42  1  7.88270718  4.76694993  1.55055675  1
  Mo  Mo43  1  6.27401835  3.11366469  3.21595906  1
  Mo  Mo44  1  7.89459045  4.73250845  4.76961439  1
  Mo  Mo45  1  6.29195128  3.18922227  6.32703041  1
  Mo  Mo46  1  7.84914664  4.73167029  7.94923429  1
  Mo  Mo47  1  6.33071359  6.32256830  0.00773181  1
  Mo  Mo48  1  7.94646359  7.93682632  1.56400346  1
  Mo  Mo49  1  6.28582396  6.29594721  3.17526509  1
  Mo  Mo50  1  7.89363794  7.87238473  4.69950924  1
  Mo  Mo51  1  6.32730328  6.31804062  6.37915030  1
  Mo  Mo52  1  7.89992660  7.91257625  7.91253508  1
