# generated using pymatgen
data_Mo
_symmetry_space_group_name_H-M   'P 1'
_cell_length_a   9.48969964
_cell_length_b   9.48969964
_cell_length_c   9.48969964
_cell_angle_alpha   90.00000000
_cell_angle_beta   90.00000000
_cell_angle_gamma   90.00000000
_symmetry_Int_Tables_number   1
_chemical_formula_structural   Mo
_chemical_formula_sum   Mo53
_cell_volume   854.58919962
_cell_formula_units_Z   53
loop_
 _symmetry_equiv_pos_site_id
 _symmetry_equiv_pos_as_xyz
  1  'x, y, z'
loop_
 _atom_site_type_symbol
 _atom_site_label
 _atom_site_symmetry_multiplicity
 _atom_site_fract_x
 _atom_site_fract_y
 _atom_site_fract_z
 _atom_site_occupancy
  Mo  Mo0  1  1.62599389  1.55917669  1.55608485  1
  Mo  Mo1  1  0.05750463  -0.00074468  3.15738388  1
  Mo  Mo2  1  1.57944791  1.55429282  4.74845654  1
  Mo  Mo3  1  -0.01087524  -0.05762110  6.41508758  1
  Mo  Mo4  1  1.58380092  1.58394582  7.86263130  1
  Mo  Mo5  1  -0.03504588  3.11967595  0.02493942  1
  Mo  Mo6  1  1.57450521  4.75747656  1.63729228  1
  Mo  Mo7  1  0.01398343  3.18496958  3.14917523  1
  Mo  Mo8  1  1.58353503  4.75778444  4.78910962  1
  Mo  Mo9  1  0.03790779  3.18352685  6.27791208  1
  Mo  Mo10  1  1.57848104  4.70301052  7.99792401  1
  Mo  Mo11  1  -0.02601337  6.36872246  -0.03114216  1
  Mo  Mo12  1  1.56582769  7.93075771  1.51574435  1
  Mo  Mo13  1  0.02119557  6.27506651  3.15382170  1
  Mo  Mo14  1  1.57898371  7.86719515  4.70174313  1
  Mo  Mo15  1  -0.06926821  6.23520160  6.33840638  1
  Mo  Mo16  1  1.54268145  7.89353830  7.88734757  1
  Mo  Mo17  1  3.13379878  0.00520709  0.00518964  1
  Mo  Mo18  1  4.78061692  1.63060834  1.55698498  1
  Mo  Mo19  1  3.13999685  0.09725748  3.15888240  1
  Mo  Mo20  1  4.70281319  1.53116227  4.70953231  1
  Mo  Mo21  1  3.20019267  -0.09537105  6.34259365  1
  Mo  Mo22  1  4.66715196  1.56453509  7.88270987  1
  Mo  Mo23  1  3.11127046  3.19793591  0.04427614  1
  Mo  Mo24  1  4.78134884  4.70499483  1.57407579  1
  Mo  Mo25  1  3.14867017  3.17295513  3.19791825  1
  Mo  Mo26  1  4.67718887  4.70862843  4.80796362  1
  Mo  Mo27  1  3.20416867  3.12586894  6.29712635  1
  Mo  Mo28  1  4.72428890  4.75048591  7.95212555  1
  Mo  Mo29  1  3.19860851  6.41860165  0.02401505  1
  Mo  Mo30  1  4.75371327  7.94766931  1.58977350  1
  Mo  Mo31  1  3.28354616  6.32947338  3.14934007  1
  Mo  Mo32  1  4.77001285  7.88528303  4.69917079  1
  Mo  Mo33  1  3.21761655  6.33087753  6.30264843  1
  Mo  Mo34  1  4.75082403  7.86932110  8.00304978  1
  Mo  Mo35  1  6.34605797  -0.00048719  0.04419625  1
  Mo  Mo36  1  7.90955225  1.55316386  1.54656453  1
  Mo  Mo37  1  6.29853084  -0.01062149  3.15926690  1
  Mo  Mo38  1  7.92794012  1.66612481  4.74288472  1
  Mo  Mo39  1  6.24135425  -0.01587595  6.26813032  1
  Mo  Mo40  1  7.87793910  1.56593978  7.87853053  1
  Mo  Mo41  1  6.26457057  3.21805427  0.00356814  1
  Mo  Mo42  1  7.93196796  4.71969317  1.56067159  1
  Mo  Mo43  1  6.26534868  3.15335952  3.14548207  1
  Mo  Mo44  1  7.88242143  4.77696327  4.73542585  1
  Mo  Mo45  1  6.34701171  3.19329007  6.37864040  1
  Mo  Mo46  1  7.99335086  4.73064624  7.94223927  1
  Mo  Mo47  1  6.29154257  6.26614222  0.05177796  1
  Mo  Mo48  1  8.04307712  7.99409514  1.51632175  1
  Mo  Mo49  1  6.27806319  6.36081726  3.08724989  1
  Mo  Mo50  1  7.96980094  7.95380379  4.63881665  1
  Mo  Mo51  1  6.28515319  6.36678315  6.31959794  1
  Mo  Mo52  1  7.91608783  7.93488130  8.01958406  1
