# generated using pymatgen
data_Mo
_symmetry_space_group_name_H-M   'P 1'
_cell_length_a   9.48969964
_cell_length_b   9.48969964
_cell_length_c   9.48969964
_cell_angle_alpha   90.00000000
_cell_angle_beta   90.00000000
_cell_angle_gamma   90.00000000
_symmetry_Int_Tables_number   1
_chemical_formula_structural   Mo
_chemical_formula_sum   Mo53
_cell_volume   854.58919962
_cell_formula_units_Z   53
loop_
 _symmetry_equiv_pos_site_id
 _symmetry_equiv_pos_as_xyz
  1  'x, y, z'
loop_
 _atom_site_type_symbol
 _atom_site_label
 _atom_site_symmetry_multiplicity
 _atom_site_fract_x
 _atom_site_fract_y
 _atom_site_fract_z
 _atom_site_occupancy
  Mo  Mo0  1  1.57695644  1.58296574  1.55539469  1
  Mo  Mo1  1  0.04418007  0.02713994  3.15225190  1
  Mo  Mo2  1  1.53932715  1.49662905  4.75588739  1
  Mo  Mo3  1  -0.02950032  -0.03652616  6.37413833  1
  Mo  Mo4  1  1.55972241  1.53612806  7.87653235  1
  Mo  Mo5  1  -0.02106966  3.08360859  0.01468769  1
  Mo  Mo6  1  1.55474420  4.75314069  1.59493988  1
  Mo  Mo7  1  -0.02506586  3.15723438  3.18541935  1
  Mo  Mo8  1  1.57537354  4.73595615  4.78508075  1
  Mo  Mo9  1  0.02857056  3.15911220  6.31764199  1
  Mo  Mo10  1  1.54581712  4.70563715  8.00647526  1
  Mo  Mo11  1  0.02333430  6.35117044  0.00835802  1
  Mo  Mo12  1  1.56377069  7.91223875  1.54493922  1
  Mo  Mo13  1  0.00799612  6.30267083  3.15005767  1
  Mo  Mo14  1  1.52214091  7.86521856  4.71415468  1
  Mo  Mo15  1  -0.06209882  6.28841991  6.30799980  1
  Mo  Mo16  1  1.53493674  7.84792962  7.87887883  1
  Mo  Mo17  1  3.15287739  0.06490432  -0.02444704  1
  Mo  Mo18  1  4.73967693  1.57889192  1.51793568  1
  Mo  Mo19  1  3.18617784  0.03527036  3.16650603  1
  Mo  Mo20  1  4.73421631  1.54950123  4.73749611  1
  Mo  Mo21  1  3.19862647  -0.08673676  6.30319108  1
  Mo  Mo22  1  4.69899102  1.52276243  7.92250447  1
  Mo  Mo23  1  3.13540887  3.23255444  0.01136998  1
  Mo  Mo24  1  4.72721775  4.72652861  1.59902635  1
  Mo  Mo25  1  3.17565153  3.21178442  3.19781483  1
  Mo  Mo26  1  4.74656597  4.70087481  4.79482486  1
  Mo  Mo27  1  3.19725431  3.15040160  6.33429457  1
  Mo  Mo28  1  4.72446041  4.72124574  7.96316294  1
  Mo  Mo29  1  3.19058625  6.38304963  0.03594458  1
  Mo  Mo30  1  4.78181834  7.98681571  1.56308982  1
  Mo  Mo31  1  3.23821114  6.32848619  3.15974641  1
  Mo  Mo32  1  4.76372138  7.91605062  4.71142574  1
  Mo  Mo33  1  3.19783394  6.29824668  6.32490822  1
  Mo  Mo34  1  4.75966394  7.91059024  7.99295030  1
  Mo  Mo35  1  6.30794621  0.01945684  0.01164189  1
  Mo  Mo36  1  7.95511121  1.56982129  1.56592718  1
  Mo  Mo37  1  6.30279339  0.00843131  3.17638939  1
  Mo  Mo38  1  7.98462323  1.64111918  4.71599603  1
  Mo  Mo39  1  6.24817379  -0.03329767  6.29437868  1
  Mo  Mo40  1  7.89829050  1.57903498  7.86976090  1
  Mo  Mo41  1  6.23957018  3.16391177  -0.02600492  1
  Mo  Mo42  1  7.98294386  4.73440692  1.55219098  1
  Mo  Mo43  1  6.27269320  3.18176647  3.19557493  1
  Mo  Mo44  1  7.89362488  4.79916118  4.71696937  1
  Mo  Mo45  1  6.28898772  3.20258145  6.32818888  1
  Mo  Mo46  1  7.98044302  4.74637877  7.96093392  1
  Mo  Mo47  1  6.31157544  6.29854789  0.02701426  1
  Mo  Mo48  1  8.07503041  8.01174623  1.50290677  1
  Mo  Mo49  1  6.31924772  6.31821834  3.12926507  1
  Mo  Mo50  1  7.98156659  7.99015165  4.66503414  1
  Mo  Mo51  1  6.28923849  6.35085721  6.31719031  1
  Mo  Mo52  1  7.89828857  7.93605281  7.98030231  1
