# generated using pymatgen
data_Mo
_symmetry_space_group_name_H-M   'P 1'
_cell_length_a   9.48969964
_cell_length_b   9.48969964
_cell_length_c   9.48969964
_cell_angle_alpha   90.00000000
_cell_angle_beta   90.00000000
_cell_angle_gamma   90.00000000
_symmetry_Int_Tables_number   1
_chemical_formula_structural   Mo
_chemical_formula_sum   Mo53
_cell_volume   854.58919962
_cell_formula_units_Z   53
loop_
 _symmetry_equiv_pos_site_id
 _symmetry_equiv_pos_as_xyz
  1  'x, y, z'
loop_
 _atom_site_type_symbol
 _atom_site_label
 _atom_site_symmetry_multiplicity
 _atom_site_fract_x
 _atom_site_fract_y
 _atom_site_fract_z
 _atom_site_occupancy
  Mo  Mo0  1  1.50859278  1.59807025  1.56355664  1
  Mo  Mo1  1  0.01559133  0.03616367  3.12162730  1
  Mo  Mo2  1  1.54572781  1.47671959  4.76008820  1
  Mo  Mo3  1  -0.03760216  0.00720917  6.31888735  1
  Mo  Mo4  1  1.52350402  1.47995915  7.92402067  1
  Mo  Mo5  1  -0.00435046  3.05954068  -0.01337860  1
  Mo  Mo6  1  1.53082317  4.72317179  1.55056109  1
  Mo  Mo7  1  -0.04113025  3.13300109  3.22341217  1
  Mo  Mo8  1  1.54715896  4.69824694  4.76198115  1
  Mo  Mo9  1  -0.01849050  3.14016333  6.37904767  1
  Mo  Mo10  1  1.50525850  4.72537684  7.95118304  1
  Mo  Mo11  1  0.06374586  6.33641003  0.02344508  1
  Mo  Mo12  1  1.56424437  7.90137294  1.60369208  1
  Mo  Mo13  1  -0.00306800  6.35635977  3.15585536  1
  Mo  Mo14  1  1.47314007  7.85572158  4.74217187  1
  Mo  Mo15  1  -0.01609206  6.37835709  6.28641422  1
  Mo  Mo16  1  1.53995904  7.82743157  7.89829606  1
  Mo  Mo17  1  3.15271959  0.08263274  -0.04649743  1
  Mo  Mo18  1  4.68684560  1.55401695  1.52768036  1
  Mo  Mo19  1  3.23180002  -0.04488967  3.16808484  1
  Mo  Mo20  1  4.77368887  1.58214156  4.76893883  1
  Mo  Mo21  1  3.17195952  -0.01631527  6.26899550  1
  Mo  Mo22  1  4.75644345  1.52541054  7.93795581  1
  Mo  Mo23  1  3.17211727  3.21856524  -0.02888951  1
  Mo  Mo24  1  4.70084466  4.78413402  1.60714511  1
  Mo  Mo25  1  3.19011553  3.20594715  3.18786697  1
  Mo  Mo26  1  4.80849934  4.74756187  4.75282140  1
  Mo  Mo27  1  3.16250963  3.16667950  6.36656632  1
  Mo  Mo28  1  4.74161675  4.72208645  7.95352901  1
  Mo  Mo29  1  3.19696567  6.34065889  0.02374291  1
  Mo  Mo30  1  4.81071048  7.96771045  1.54977948  1
  Mo  Mo31  1  3.14800971  6.33966338  3.18963247  1
  Mo  Mo32  1  4.74085425  7.91400672  4.74805649  1
  Mo  Mo33  1  3.16046718  6.27683679  6.35292704  1
  Mo  Mo34  1  4.74709104  7.92296383  7.92326396  1
  Mo  Mo35  1  6.30840475  0.02900865  -0.03513821  1
  Mo  Mo36  1  7.98939325  1.60110373  1.58245376  1
  Mo  Mo37  1  6.32199035  0.03306918  3.18031176  1
  Mo  Mo38  1  8.01445185  1.59783682  4.71891560  1
  Mo  Mo39  1  6.30866697  -0.02544889  6.34917200  1
  Mo  Mo40  1  7.94538764  1.59012962  7.88579202  1
  Mo  Mo41  1  6.25178853  3.08038837  -0.02930963  1
  Mo  Mo42  1  8.00396194  4.76304635  1.54734288  1
  Mo  Mo43  1  6.30476795  3.18969084  3.20702951  1
  Mo  Mo44  1  7.95268376  4.80046769  4.72903950  1
  Mo  Mo45  1  6.25396742  3.17058203  6.27594310  1
  Mo  Mo46  1  7.93154350  4.77137187  7.94919052  1
  Mo  Mo47  1  6.34262923  6.34784691  -0.00765891  1
  Mo  Mo48  1  8.02620379  8.00099616  1.50614302  1
  Mo  Mo49  1  6.36415348  6.30180335  3.18804139  1
  Mo  Mo50  1  7.93334142  7.99553523  4.73964345  1
  Mo  Mo51  1  6.30783353  6.31858958  6.32529726  1
  Mo  Mo52  1  7.90680333  7.92913865  7.90357277  1
