# generated using pymatgen
data_Mo
_symmetry_space_group_name_H-M   'P 1'
_cell_length_a   9.48969964
_cell_length_b   9.48969964
_cell_length_c   9.48969964
_cell_angle_alpha   90.00000000
_cell_angle_beta   90.00000000
_cell_angle_gamma   90.00000000
_symmetry_Int_Tables_number   1
_chemical_formula_structural   Mo
_chemical_formula_sum   Mo53
_cell_volume   854.58919962
_cell_formula_units_Z   53
loop_
 _symmetry_equiv_pos_site_id
 _symmetry_equiv_pos_as_xyz
  1  'x, y, z'
loop_
 _atom_site_type_symbol
 _atom_site_label
 _atom_site_symmetry_multiplicity
 _atom_site_fract_x
 _atom_site_fract_y
 _atom_site_fract_z
 _atom_site_occupancy
  Mo  Mo0  1  1.49638941  1.57242019  1.56981089  1
  Mo  Mo1  1  -0.00443662  -0.00031759  3.08856603  1
  Mo  Mo2  1  1.59980775  1.51872317  4.75296216  1
  Mo  Mo3  1  -0.01079552  0.02582647  6.31425551  1
  Mo  Mo4  1  1.50823415  1.47754633  7.96678468  1
  Mo  Mo5  1  -0.01391663  3.08976827  -0.02973964  1
  Mo  Mo6  1  1.51729855  4.68537977  1.54309812  1
  Mo  Mo7  1  0.00393702  3.14826484  3.21646292  1
  Mo  Mo8  1  1.51698318  4.67542163  4.74631107  1
  Mo  Mo9  1  -0.05893579  3.15678096  6.38085425  1
  Mo  Mo10  1  1.48728751  4.72528579  7.88209597  1
  Mo  Mo11  1  0.04117680  6.35756843  -0.00967287  1
  Mo  Mo12  1  1.57255858  7.90455127  1.63487773  1
  Mo  Mo13  1  -0.00645366  6.37639352  3.16748057  1
  Mo  Mo14  1  1.48089515  7.86239966  4.75664620  1
  Mo  Mo15  1  0.02648187  6.40149142  6.31196138  1
  Mo  Mo16  1  1.55681278  7.86648328  7.92904745  1
  Mo  Mo17  1  3.14124842  0.00684798  -0.02330975  1
  Mo  Mo18  1  4.68262896  1.58855018  1.59671884  1
  Mo  Mo19  1  3.24299415  -0.05406957  3.16314886  1
  Mo  Mo20  1  4.78415776  1.59388534  4.76185576  1
  Mo  Mo21  1  3.15565859  0.05477345  6.28060877  1
  Mo  Mo22  1  4.76270482  1.58149845  7.90454399  1
  Mo  Mo23  1  3.18899534  3.16465305  -0.03115037  1
  Mo  Mo24  1  4.74101131  4.82889811  1.57687160  1
  Mo  Mo25  1  3.17816076  3.15536298  3.18212430  1
  Mo  Mo26  1  4.77985883  4.80617075  4.71619460  1
  Mo  Mo27  1  3.14473074  3.15842872  6.34728658  1
  Mo  Mo28  1  4.76226999  4.75671384  7.92078649  1
  Mo  Mo29  1  3.23297962  6.33764607  0.00070982  1
  Mo  Mo30  1  4.81397881  7.91056952  1.55200873  1
  Mo  Mo31  1  3.10911759  6.33806070  3.21507137  1
  Mo  Mo32  1  4.72356979  7.88253802  4.78405598  1
  Mo  Mo33  1  3.14644407  6.28619085  6.34776903  1
  Mo  Mo34  1  4.72418918  7.89001048  7.85978360  1
  Mo  Mo35  1  6.35046301  -0.00600357  -0.04329894  1
  Mo  Mo36  1  7.96507117  1.62197073  1.58619886  1
  Mo  Mo37  1  6.32149419  0.02432069  3.15994420  1
  Mo  Mo38  1  7.98023272  1.58060212  4.76852003  1
  Mo  Mo39  1  6.35529590  0.00338847  6.35909974  1
  Mo  Mo40  1  7.97203422  1.58910411  7.92170552  1
  Mo  Mo41  1  6.29030911  3.06959802  0.00621312  1
  Mo  Mo42  1  7.97782766  4.78913785  1.54056819  1
  Mo  Mo43  1  6.32835805  3.17392793  3.15815779  1
  Mo  Mo44  1  8.00649624  4.77347171  4.76675485  1
  Mo  Mo45  1  6.29050502  3.13082119  6.29090840  1
  Mo  Mo46  1  7.89770316  4.78117154  7.91900022  1
  Mo  Mo47  1  6.35846033  6.35555007  -0.01519105  1
  Mo  Mo48  1  7.91640073  7.96613883  1.52719950  1
  Mo  Mo49  1  6.35961007  6.34509927  3.20481635  1
  Mo  Mo50  1  7.85981697  7.97209304  4.78576999  1
  Mo  Mo51  1  6.31908788  6.29254136  6.33461889  1
  Mo  Mo52  1  7.94105406  7.92459315  7.87037656  1
