# generated using pymatgen
data_Mo
_symmetry_space_group_name_H-M   'P 1'
_cell_length_a   9.48969964
_cell_length_b   9.48969964
_cell_length_c   9.48969964
_cell_angle_alpha   90.00000000
_cell_angle_beta   90.00000000
_cell_angle_gamma   90.00000000
_symmetry_Int_Tables_number   1
_chemical_formula_structural   Mo
_chemical_formula_sum   Mo53
_cell_volume   854.58919962
_cell_formula_units_Z   53
loop_
 _symmetry_equiv_pos_site_id
 _symmetry_equiv_pos_as_xyz
  1  'x, y, z'
loop_
 _atom_site_type_symbol
 _atom_site_label
 _atom_site_symmetry_multiplicity
 _atom_site_fract_x
 _atom_site_fract_y
 _atom_site_fract_z
 _atom_site_occupancy
  Mo  Mo0  1  1.54134662  1.50886147  1.56243853  1
  Mo  Mo1  1  -0.01812408  -0.03463032  3.09292751  1
  Mo  Mo2  1  1.62016622  1.57436070  4.74304396  1
  Mo  Mo3  1  0.04260424  0.02130920  6.35264755  1
  Mo  Mo4  1  1.52558433  1.53005524  7.99131131  1
  Mo  Mo5  1  -0.02907198  3.15799720  -0.00784493  1
  Mo  Mo6  1  1.52826974  4.68778069  1.55096795  1
  Mo  Mo7  1  0.05574041  3.16694425  3.15422472  1
  Mo  Mo8  1  1.52001687  4.69680749  4.74273830  1
  Mo  Mo9  1  -0.03976966  3.17270866  6.31880186  1
  Mo  Mo10  1  1.51317844  4.71115963  7.87178078  1
  Mo  Mo11  1  0.00177577  6.40030265  -0.03633091  1
  Mo  Mo12  1  1.57350123  7.89469341  1.61253715  1
  Mo  Mo13  1  -0.00882498  6.34826892  3.16989501  1
  Mo  Mo14  1  1.52394723  7.90728514  4.75990146  1
  Mo  Mo15  1  0.03039255  6.35308501  6.35534221  1
  Mo  Mo16  1  1.57733602  7.93948138  7.93693033  1
  Mo  Mo17  1  3.16366885  -0.07942855  0.03074943  1
  Mo  Mo18  1  4.73352466  1.62061237  1.63648589  1
  Mo  Mo19  1  3.21953463  -0.00045232  3.15789733  1
  Mo  Mo20  1  4.77520475  1.58974354  4.73015185  1
  Mo  Mo21  1  3.18189314  0.07177458  6.32660297  1
  Mo  Mo22  1  4.72305760  1.61640027  7.89447080  1
  Mo  Mo23  1  3.18225525  3.12333221  0.00128878  1
  Mo  Mo24  1  4.79624954  4.81025876  1.54345073  1
  Mo  Mo25  1  3.17195023  3.12204051  3.16643045  1
  Mo  Mo26  1  4.71428138  4.79523577  4.70364568  1
  Mo  Mo27  1  3.16560558  3.15238583  6.29965506  1
  Mo  Mo28  1  4.76005987  4.76690166  7.87974699  1
  Mo  Mo29  1  3.25447876  6.33200223  -0.00490319  1
  Mo  Mo30  1  4.76050909  7.89026458  1.56126302  1
  Mo  Mo31  1  3.14819834  6.30502398  3.19289795  1
  Mo  Mo32  1  4.71373597  7.88908582  4.78739043  1
  Mo  Mo33  1  3.15618627  6.31677067  6.31954162  1
  Mo  Mo34  1  4.72599259  7.88335037  7.86059275  1
  Mo  Mo35  1  6.36206863  -0.05078624  -0.01892585  1
  Mo  Mo36  1  7.89995694  1.61418966  1.59596222  1
  Mo  Mo37  1  6.29483517  -0.01499347  3.13842720  1
  Mo  Mo38  1  7.94001554  1.58966686  4.80305745  1
  Mo  Mo39  1  6.33856799  0.01075334  6.31552007  1
  Mo  Mo40  1  7.95813570  1.57528847  7.95218799  1
  Mo  Mo41  1  6.31265554  3.14689852  0.03968858  1
  Mo  Mo42  1  7.93155116  4.80559483  1.54227475  1
  Mo  Mo43  1  6.33813930  3.17381903  3.11978447  1
  Mo  Mo44  1  7.96540966  4.74333224  4.77727992  1
  Mo  Mo45  1  6.34523690  3.13606248  6.34714779  1
  Mo  Mo46  1  7.90486444  4.76962720  7.89845772  1
  Mo  Mo47  1  6.35980803  6.30839629  -0.00886638  1
  Mo  Mo48  1  7.82417098  7.92161439  1.56666504  1
  Mo  Mo49  1  6.31231967  6.38131896  3.17969744  1
  Mo  Mo50  1  7.83867812  7.94383145  4.78075895  1
  Mo  Mo51  1  6.32369027  6.28467900  6.32778078  1
  Mo  Mo52  1  7.96368428  7.93717680  7.90267328  1
