# generated using pymatgen
data_Mo
_symmetry_space_group_name_H-M   'P 1'
_cell_length_a   9.46602123
_cell_length_b   9.46602137
_cell_length_c   9.46602266
_cell_angle_alpha   90.00002705
_cell_angle_beta   90.00001288
_cell_angle_gamma   90.00006527
_symmetry_Int_Tables_number   1
_chemical_formula_structural   Mo
_chemical_formula_sum   Mo53
_cell_volume   848.20825455
_cell_formula_units_Z   53
loop_
 _symmetry_equiv_pos_site_id
 _symmetry_equiv_pos_as_xyz
  1  'x, y, z'
loop_
 _atom_site_type_symbol
 _atom_site_label
 _atom_site_symmetry_multiplicity
 _atom_site_fract_x
 _atom_site_fract_y
 _atom_site_fract_z
 _atom_site_occupancy
  Mo  Mo0  1  1.61237093  1.51443224  1.58660627  1
  Mo  Mo1  1  0.01662049  -0.04494282  3.07206538  1
  Mo  Mo2  1  1.59387577  1.54783136  4.79030565  1
  Mo  Mo3  1  -0.00573075  0.02520095  6.34177374  1
  Mo  Mo4  1  1.45924865  1.58164728  7.97244223  1
  Mo  Mo5  1  -0.01543168  3.11998313  0.00879473  1
  Mo  Mo6  1  1.55839149  4.67980755  1.47916290  1
  Mo  Mo7  1  -0.01271165  3.14254904  3.23431702  1
  Mo  Mo8  1  1.59702089  4.72559192  4.75201315  1
  Mo  Mo9  1  -0.03685521  3.15322605  6.30957999  1
  Mo  Mo10  1  1.47647507  4.76244208  7.86924720  1
  Mo  Mo11  1  0.02750682  6.36896101  -0.05350675  1
  Mo  Mo12  1  1.58332051  7.85708483  1.58515209  1
  Mo  Mo13  1  0.03650016  6.26882492  3.23357950  1
  Mo  Mo14  1  1.53902664  7.87848711  4.72491474  1
  Mo  Mo15  1  0.01456399  6.31007087  6.28418975  1
  Mo  Mo16  1  1.49672535  7.95308724  7.90270874  1
  Mo  Mo17  1  3.08615305  -0.04675168  0.04306987  1
  Mo  Mo18  1  4.69742193  1.48830089  1.58309765  1
  Mo  Mo19  1  3.16598301  0.01090764  3.25795754  1
  Mo  Mo20  1  4.72153441  1.57099127  4.75118549  1
  Mo  Mo21  1  3.14609419  0.03408981  6.29284225  1
  Mo  Mo22  1  4.67504593  1.58036839  7.91363808  1
  Mo  Mo23  1  3.19235140  3.16074708  -0.05875444  1
  Mo  Mo24  1  4.72349211  4.73031856  1.50569928  1
  Mo  Mo25  1  3.14176491  3.10783255  3.17747966  1
  Mo  Mo26  1  4.72802771  4.72227895  4.67621463  1
  Mo  Mo27  1  3.15215898  3.22849527  6.25055783  1
  Mo  Mo28  1  4.73667592  4.76725684  7.96021430  1
  Mo  Mo29  1  3.18993597  6.27263400  -0.00199808  1
  Mo  Mo30  1  4.79917940  7.97044024  1.52896913  1
  Mo  Mo31  1  3.17070055  6.31091087  3.14278278  1
  Mo  Mo32  1  4.79576538  7.93901303  4.69912461  1
  Mo  Mo33  1  3.13941160  6.28798462  6.27888255  1
  Mo  Mo34  1  4.73632434  7.91365845  7.92651654  1
  Mo  Mo35  1  6.34041444  0.03549750  -0.07348152  1
  Mo  Mo36  1  7.96841743  1.49473014  1.52412588  1
  Mo  Mo37  1  6.28601797  -0.01723976  3.07159884  1
  Mo  Mo38  1  7.92221847  1.54372760  4.72536753  1
  Mo  Mo39  1  6.30772328  0.02497800  6.25364283  1
  Mo  Mo40  1  7.88916259  1.63501344  7.94759089  1
  Mo  Mo41  1  6.28437921  3.17975148  0.02948935  1
  Mo  Mo42  1  7.89521824  4.72468933  1.64440711  1
  Mo  Mo43  1  6.31034936  3.14216425  3.17180975  1
  Mo  Mo44  1  7.91589071  4.69857030  4.82179736  1
  Mo  Mo45  1  6.30725675  3.23476040  6.32061248  1
  Mo  Mo46  1  7.89489612  4.78733693  7.93099346  1
  Mo  Mo47  1  6.32636458  6.27966605  -0.01112179  1
  Mo  Mo48  1  7.93326273  7.94161976  1.56296580  1
  Mo  Mo49  1  6.32328208  6.25170168  3.11737859  1
  Mo  Mo50  1  7.91684544  7.89096475  4.75611089  1
  Mo  Mo51  1  6.32947665  6.29837584  6.28174521  1
  Mo  Mo52  1  7.89521829  7.94524020  7.88957731  1
