# generated using pymatgen
data_Mo
_symmetry_space_group_name_H-M   'P 1'
_cell_length_a   9.48969964
_cell_length_b   9.48969964
_cell_length_c   9.48969964
_cell_angle_alpha   90.00000000
_cell_angle_beta   90.00000000
_cell_angle_gamma   90.00000000
_symmetry_Int_Tables_number   1
_chemical_formula_structural   Mo
_chemical_formula_sum   Mo53
_cell_volume   854.58919962
_cell_formula_units_Z   53
loop_
 _symmetry_equiv_pos_site_id
 _symmetry_equiv_pos_as_xyz
  1  'x, y, z'
loop_
 _atom_site_type_symbol
 _atom_site_label
 _atom_site_symmetry_multiplicity
 _atom_site_fract_x
 _atom_site_fract_y
 _atom_site_fract_z
 _atom_site_occupancy
  Mo  Mo0  1  1.58873344  1.45237100  1.54319994  1
  Mo  Mo1  1  -0.02169616  -0.03591817  3.13432745  1
  Mo  Mo2  1  1.57860205  1.58833861  4.74136764  1
  Mo  Mo3  1  0.07386107  0.00996211  6.38914401  1
  Mo  Mo4  1  1.55879307  1.60460162  7.99915832  1
  Mo  Mo5  1  -0.01855703  3.19159725  0.02786785  1
  Mo  Mo6  1  1.56256734  4.73034443  1.54945428  1
  Mo  Mo7  1  0.05477280  3.16579684  3.07888026  1
  Mo  Mo8  1  1.55669853  4.75644507  4.72870735  1
  Mo  Mo9  1  0.03362741  3.15759999  6.26653955  1
  Mo  Mo10  1  1.57017541  4.71371045  7.91447532  1
  Mo  Mo11  1  -0.00158008  6.42169656  -0.01550257  1
  Mo  Mo12  1  1.55493917  7.86515665  1.57519561  1
  Mo  Mo13  1  -0.01057173  6.30481272  3.16566090  1
  Mo  Mo14  1  1.54865302  7.96746544  4.76461751  1
  Mo  Mo15  1  0.01050685  6.30944491  6.35756789  1
  Mo  Mo16  1  1.58718178  7.98667147  7.91486256  1
  Mo  Mo17  1  3.20329623  -0.07743758  0.06392213  1
  Mo  Mo18  1  4.78162507  1.59773898  1.58787110  1
  Mo  Mo19  1  3.16719249  0.04118302  3.16439285  1
  Mo  Mo20  1  4.76246008  1.59524699  4.72257651  1
  Mo  Mo21  1  3.23054168  0.03547384  6.36259855  1
  Mo  Mo22  1  4.69540572  1.59547086  7.94241256  1
  Mo  Mo23  1  3.16145997  3.12483537  0.03872472  1
  Mo  Mo24  1  4.79042507  4.72911437  1.54264580  1
  Mo  Mo25  1  3.19876329  3.14777166  3.13141410  1
  Mo  Mo26  1  4.68975383  4.72167187  4.71627670  1
  Mo  Mo27  1  3.20185956  3.17312465  6.27842255  1
  Mo  Mo28  1  4.72993453  4.72859657  7.86316425  1
  Mo  Mo29  1  3.22555361  6.28968778  -0.00188057  1
  Mo  Mo30  1  4.67498868  7.91515244  1.57034262  1
  Mo  Mo31  1  3.20066768  6.27231918  3.13613681  1
  Mo  Mo32  1  4.70335851  7.94758698  4.75089322  1
  Mo  Mo33  1  3.17403005  6.34688615  6.30137456  1
  Mo  Mo34  1  4.76448011  7.92704164  7.90761752  1
  Mo  Mo35  1  6.32505483  -0.05561634  0.00326054  1
  Mo  Mo36  1  7.85322629  1.59093128  1.61749392  1
  Mo  Mo37  1  6.27985323  -0.04053588  3.14916887  1
  Mo  Mo38  1  7.94252097  1.58487861  4.78076039  1
  Mo  Mo39  1  6.30164268  -0.02506564  6.27726449  1
  Mo  Mo40  1  7.91906348  1.57322328  7.96067645  1
  Mo  Mo41  1  6.31011392  3.23108611  0.02335529  1
  Mo  Mo42  1  7.90748601  4.80074823  1.56230386  1
  Mo  Mo43  1  6.34843088  3.20187940  3.15369938  1
  Mo  Mo44  1  7.85774248  4.73662260  4.74314072  1
  Mo  Mo45  1  6.35325357  3.17061071  6.36803812  1
  Mo  Mo46  1  7.94660546  4.75211120  7.91018351  1
  Mo  Mo47  1  6.35013937  6.26912667  -0.02166881  1
  Mo  Mo48  1  7.81281293  7.89210272  1.59786453  1
  Mo  Mo49  1  6.26697018  6.34191705  3.16373488  1
  Mo  Mo50  1  7.88274002  7.92203215  4.76532306  1
  Mo  Mo51  1  6.32533005  6.29844003  6.30185488  1
  Mo  Mo52  1  7.95275435  7.97218890  7.94735882  1
