# generated using pymatgen
data_Mo
_symmetry_space_group_name_H-M   'P 1'
_cell_length_a   9.48969964
_cell_length_b   9.48969964
_cell_length_c   9.48969964
_cell_angle_alpha   90.00000000
_cell_angle_beta   90.00000000
_cell_angle_gamma   90.00000000
_symmetry_Int_Tables_number   1
_chemical_formula_structural   Mo
_chemical_formula_sum   Mo53
_cell_volume   854.58919962
_cell_formula_units_Z   53
loop_
 _symmetry_equiv_pos_site_id
 _symmetry_equiv_pos_as_xyz
  1  'x, y, z'
loop_
 _atom_site_type_symbol
 _atom_site_label
 _atom_site_symmetry_multiplicity
 _atom_site_fract_x
 _atom_site_fract_y
 _atom_site_fract_z
 _atom_site_occupancy
  Mo  Mo0  1  1.53044482  1.53440938  1.54634572  1
  Mo  Mo1  1  -0.01220486  -0.00185926  3.15644756  1
  Mo  Mo2  1  1.54509175  1.58866526  4.70669560  1
  Mo  Mo3  1  -0.00963297  0.00967404  6.39859786  1
  Mo  Mo4  1  1.60807372  1.64295775  7.92388239  1
  Mo  Mo5  1  0.03728394  3.13266375  -0.02508270  1
  Mo  Mo6  1  1.60827853  4.74944341  1.54607988  1
  Mo  Mo7  1  -0.01203141  3.18830169  3.11153846  1
  Mo  Mo8  1  1.59684847  4.79355182  4.68432190  1
  Mo  Mo9  1  0.06190276  3.17500084  6.28863748  1
  Mo  Mo10  1  1.58576599  4.80720505  7.91533690  1
  Mo  Mo11  1  0.01084219  6.31878962  0.03618186  1
  Mo  Mo12  1  1.53180346  7.93140291  1.55384710  1
  Mo  Mo13  1  -0.02304438  6.30665902  3.20416576  1
  Mo  Mo14  1  1.56084303  7.99499209  4.74225904  1
  Mo  Mo15  1  -0.00567033  6.26865363  6.31639429  1
  Mo  Mo16  1  1.58842398  7.93096816  7.89173693  1
  Mo  Mo17  1  3.07894286  0.02970823  -0.01815799  1
  Mo  Mo18  1  4.71893157  1.46260466  1.57381680  1
  Mo  Mo19  1  3.09216531  0.01198146  3.19787975  1
  Mo  Mo20  1  4.73262136  1.56810976  4.78616974  1
  Mo  Mo21  1  3.18735321  -0.00219034  6.36067921  1
  Mo  Mo22  1  4.77743247  1.54985919  8.00260083  1
  Mo  Mo23  1  3.16382102  3.17042344  -0.01377296  1
  Mo  Mo24  1  4.70503328  4.67541824  1.57884316  1
  Mo  Mo25  1  3.18113407  3.18417726  3.14769986  1
  Mo  Mo26  1  4.75390555  4.73028358  4.77945274  1
  Mo  Mo27  1  3.15142299  3.18955980  6.32830228  1
  Mo  Mo28  1  4.74023814  4.73899498  7.93774952  1
  Mo  Mo29  1  3.12477355  6.25968142  -0.02812489  1
  Mo  Mo30  1  4.72558500  7.89543093  1.53970253  1
  Mo  Mo31  1  3.13379221  6.33442378  3.14960475  1
  Mo  Mo32  1  4.73532589  7.95699454  4.67499049  1
  Mo  Mo33  1  3.19835224  6.33541140  6.31736370  1
  Mo  Mo34  1  4.79263865  7.96856026  7.92013538  1
  Mo  Mo35  1  6.35967781  0.03725929  0.02138713  1
  Mo  Mo36  1  7.90267490  1.51182874  1.62166150  1
  Mo  Mo37  1  6.32903113  0.01705734  3.18740342  1
  Mo  Mo38  1  7.94863408  1.47914785  4.73128623  1
  Mo  Mo39  1  6.39534771  -0.02195977  6.33025027  1
  Mo  Mo40  1  7.87090175  1.59695873  7.93843091  1
  Mo  Mo41  1  6.34796341  3.18775815  -0.07374420  1
  Mo  Mo42  1  7.93390845  4.72335090  1.60525204  1
  Mo  Mo43  1  6.33050658  3.14623431  3.19874423  1
  Mo  Mo44  1  7.91730058  4.73629420  4.75647292  1
  Mo  Mo45  1  6.31567285  3.16822661  6.29166049  1
  Mo  Mo46  1  7.95648630  4.77925294  7.95385765  1
  Mo  Mo47  1  6.30015133  6.33060247  -0.04680874  1
  Mo  Mo48  1  7.93977727  7.91282146  1.57382007  1
  Mo  Mo49  1  6.27384290  6.24676097  3.16918070  1
  Mo  Mo50  1  7.96260807  7.89547193  4.76283852  1
  Mo  Mo51  1  6.31313202  6.32128451  6.29294142  1
  Mo  Mo52  1  7.92413852  8.01898035  7.97128724  1
