# generated using pymatgen
data_Mo
_symmetry_space_group_name_H-M   'P 1'
_cell_length_a   9.48969964
_cell_length_b   9.48969964
_cell_length_c   9.48969964
_cell_angle_alpha   90.00000000
_cell_angle_beta   90.00000000
_cell_angle_gamma   90.00000000
_symmetry_Int_Tables_number   1
_chemical_formula_structural   Mo
_chemical_formula_sum   Mo53
_cell_volume   854.58919962
_cell_formula_units_Z   53
loop_
 _symmetry_equiv_pos_site_id
 _symmetry_equiv_pos_as_xyz
  1  'x, y, z'
loop_
 _atom_site_type_symbol
 _atom_site_label
 _atom_site_symmetry_multiplicity
 _atom_site_fract_x
 _atom_site_fract_y
 _atom_site_fract_z
 _atom_site_occupancy
  Mo  Mo0  1  1.48686395  1.63750494  1.54450451  1
  Mo  Mo1  1  -0.00744292  0.03411419  3.12059066  1
  Mo  Mo2  1  1.52695288  1.60728829  4.73222100  1
  Mo  Mo3  1  0.02490880  -0.03737218  6.34069238  1
  Mo  Mo4  1  1.52301083  1.58287208  7.82422383  1
  Mo  Mo5  1  0.00800093  3.14151826  -0.07600366  1
  Mo  Mo6  1  1.55274128  4.72626935  1.53933854  1
  Mo  Mo7  1  0.00401603  3.19967885  3.23571779  1
  Mo  Mo8  1  1.57788125  4.75341661  4.76619541  1
  Mo  Mo9  1  -0.04070490  3.16711894  6.32643191  1
  Mo  Mo10  1  1.53192861  4.76648747  7.86150085  1
  Mo  Mo11  1  -0.05401897  6.31180769  0.00774668  1
  Mo  Mo12  1  1.59657676  7.97979880  1.54438040  1
  Mo  Mo13  1  -0.03573087  6.35562357  3.19202360  1
  Mo  Mo14  1  1.60822036  7.94028997  4.72307909  1
  Mo  Mo15  1  -0.00174253  6.32501376  6.37485695  1
  Mo  Mo16  1  1.54517058  7.92192094  7.88369424  1
  Mo  Mo17  1  3.05620208  -0.04603205  -0.01459792  1
  Mo  Mo18  1  4.67443692  1.48302460  1.64700342  1
  Mo  Mo19  1  3.14652503  -0.00505551  3.18743464  1
  Mo  Mo20  1  4.71847357  1.50660646  4.77543637  1
  Mo  Mo21  1  3.14091245  -0.00278740  6.31979686  1
  Mo  Mo22  1  4.74098913  1.59971475  7.92659024  1
  Mo  Mo23  1  3.23312284  3.12353630  -0.05866965  1
  Mo  Mo24  1  4.80471443  4.74864371  1.58784855  1
  Mo  Mo25  1  3.12484524  3.18152646  3.22818776  1
  Mo  Mo26  1  4.77205974  4.78123924  4.72779012  1
  Mo  Mo27  1  3.18711641  3.18877608  6.31828412  1
  Mo  Mo28  1  4.78505771  4.82545200  7.93457360  1
  Mo  Mo29  1  3.13305535  6.33880621  0.02966194  1
  Mo  Mo30  1  4.82959731  7.90806736  1.50402690  1
  Mo  Mo31  1  3.12291823  6.35513723  3.18824412  1
  Mo  Mo32  1  4.84292484  7.87739587  4.77264468  1
  Mo  Mo33  1  3.15615112  6.30879840  6.31572705  1
  Mo  Mo34  1  4.74597664  7.98627576  7.87395981  1
  Mo  Mo35  1  6.41759059  0.01599338  -0.01665412  1
  Mo  Mo36  1  7.98122626  1.53598162  1.56518257  1
  Mo  Mo37  1  6.29691704  -0.02344705  3.14885820  1
  Mo  Mo38  1  7.86351177  1.51161508  4.76534284  1
  Mo  Mo39  1  6.33202325  0.03781062  6.33791312  1
  Mo  Mo40  1  7.95104693  1.58681335  7.89859974  1
  Mo  Mo41  1  6.35458526  3.14283639  0.02337464  1
  Mo  Mo42  1  7.95354775  4.68275263  1.60902405  1
  Mo  Mo43  1  6.25450656  3.12290997  3.12318791  1
  Mo  Mo44  1  7.96651387  4.69308791  4.79006220  1
  Mo  Mo45  1  6.33083232  3.18400077  6.30557012  1
  Mo  Mo46  1  7.83317182  4.79350231  7.97555513  1
  Mo  Mo47  1  6.28530911  6.36789837  0.03772291  1
  Mo  Mo48  1  7.99057366  7.88514916  1.56220865  1
  Mo  Mo49  1  6.35536484  6.32980748  3.13981017  1
  Mo  Mo50  1  7.95808557  7.87441732  4.75107341  1
  Mo  Mo51  1  6.34390642  6.32356621  6.32633927  1
  Mo  Mo52  1  7.98781959  7.88107026  7.96993517  1
