# generated using pymatgen
data_Mo
_symmetry_space_group_name_H-M   'P 1'
_cell_length_a   9.48969964
_cell_length_b   9.48969964
_cell_length_c   9.48969964
_cell_angle_alpha   90.00000000
_cell_angle_beta   90.00000000
_cell_angle_gamma   90.00000000
_symmetry_Int_Tables_number   1
_chemical_formula_structural   Mo
_chemical_formula_sum   Mo53
_cell_volume   854.58919962
_cell_formula_units_Z   53
loop_
 _symmetry_equiv_pos_site_id
 _symmetry_equiv_pos_as_xyz
  1  'x, y, z'
loop_
 _atom_site_type_symbol
 _atom_site_label
 _atom_site_symmetry_multiplicity
 _atom_site_fract_x
 _atom_site_fract_y
 _atom_site_fract_z
 _atom_site_occupancy
  Mo  Mo0  1  1.63790451  1.50346324  1.55421316  1
  Mo  Mo1  1  -0.00624917  -0.00645487  3.09325005  1
  Mo  Mo2  1  1.52791826  1.58528535  4.72550451  1
  Mo  Mo3  1  -0.01350105  0.02503312  6.36879837  1
  Mo  Mo4  1  1.51775059  1.53364718  7.99072930  1
  Mo  Mo5  1  0.00256544  3.07113847  0.06549794  1
  Mo  Mo6  1  1.61015916  4.71280435  1.55230625  1
  Mo  Mo7  1  -0.01194735  3.19777484  3.09686203  1
  Mo  Mo8  1  1.53820668  4.72914346  4.69614394  1
  Mo  Mo9  1  0.00162164  3.15001379  6.30009734  1
  Mo  Mo10  1  1.47538780  4.71339281  7.91383018  1
  Mo  Mo11  1  0.03470381  6.39405693  -0.00576079  1
  Mo  Mo12  1  1.60331340  7.88190431  1.55946972  1
  Mo  Mo13  1  0.05941550  6.33341449  3.16998143  1
  Mo  Mo14  1  1.58955483  7.92885048  4.75455204  1
  Mo  Mo15  1  0.00792206  6.25870220  6.30170023  1
  Mo  Mo16  1  1.57977094  7.96584649  7.94470744  1
  Mo  Mo17  1  3.18710718  0.01853036  0.02818125  1
  Mo  Mo18  1  4.80147975  1.60546848  1.50421603  1
  Mo  Mo19  1  3.17189000  -0.01012327  3.18100436  1
  Mo  Mo20  1  4.71605264  1.61858018  4.69840484  1
  Mo  Mo21  1  3.24759656  0.00229115  6.35096314  1
  Mo  Mo22  1  4.74858164  1.60519278  7.87552392  1
  Mo  Mo23  1  3.13435607  3.18313850  0.05382223  1
  Mo  Mo24  1  4.74403808  4.74575416  1.55590409  1
  Mo  Mo25  1  3.20008969  3.11899083  3.13581595  1
  Mo  Mo26  1  4.68929262  4.75921529  4.78153505  1
  Mo  Mo27  1  3.11045843  3.13353634  6.32760910  1
  Mo  Mo28  1  4.66976748  4.73723039  7.91552404  1
  Mo  Mo29  1  3.19244329  6.31940834  -0.03188343  1
  Mo  Mo30  1  4.72062840  7.89566835  1.59723874  1
  Mo  Mo31  1  3.24532105  6.28201347  3.19229056  1
  Mo  Mo32  1  4.69549460  7.94094212  4.68307080  1
  Mo  Mo33  1  3.20593509  6.32486751  6.35229394  1
  Mo  Mo34  1  4.73120049  7.90526251  7.96052988  1
  Mo  Mo35  1  6.31128265  0.00917979  0.00367262  1
  Mo  Mo36  1  7.85697586  1.57746529  1.56507236  1
  Mo  Mo37  1  6.29422815  0.04491326  3.12541627  1
  Mo  Mo38  1  7.90058314  1.58153465  4.73737864  1
  Mo  Mo39  1  6.36333963  -0.02774949  6.23579199  1
  Mo  Mo40  1  7.88271900  1.51884873  7.94506700  1
  Mo  Mo41  1  6.33744592  3.24229134  -0.02148463  1
  Mo  Mo42  1  7.96899637  4.80211957  1.57594918  1
  Mo  Mo43  1  6.36813188  3.19727129  3.21504761  1
  Mo  Mo44  1  7.91929126  4.78561433  4.78012825  1
  Mo  Mo45  1  6.27055256  3.14133517  6.35314002  1
  Mo  Mo46  1  7.97520693  4.67969203  7.95654014  1
  Mo  Mo47  1  6.30786005  6.33284571  -0.00092572  1
  Mo  Mo48  1  7.92719247  7.93627005  1.59469834  1
  Mo  Mo49  1  6.29979530  6.32529487  3.20409902  1
  Mo  Mo50  1  7.98161471  7.93785950  4.73252737  1
  Mo  Mo51  1  6.27968268  6.30339709  6.37257569  1
  Mo  Mo52  1  7.90711513  7.96607543  7.89962093  1
