# generated using pymatgen
data_Mo
_symmetry_space_group_name_H-M   'P 1'
_cell_length_a   9.48969964
_cell_length_b   9.48969964
_cell_length_c   9.48969964
_cell_angle_alpha   90.00000000
_cell_angle_beta   90.00000000
_cell_angle_gamma   90.00000000
_symmetry_Int_Tables_number   1
_chemical_formula_structural   Mo
_chemical_formula_sum   Mo53
_cell_volume   854.58919962
_cell_formula_units_Z   53
loop_
 _symmetry_equiv_pos_site_id
 _symmetry_equiv_pos_as_xyz
  1  'x, y, z'
loop_
 _atom_site_type_symbol
 _atom_site_label
 _atom_site_symmetry_multiplicity
 _atom_site_fract_x
 _atom_site_fract_y
 _atom_site_fract_z
 _atom_site_occupancy
  Mo  Mo0  1  1.55346564  1.58544728  1.62108886  1
  Mo  Mo1  1  -0.01205128  -0.01040291  3.14950413  1
  Mo  Mo2  1  1.56693127  1.50707863  4.73211888  1
  Mo  Mo3  1  0.06072841  0.00383874  6.41221272  1
  Mo  Mo4  1  1.56939530  1.54500714  7.92957304  1
  Mo  Mo5  1  -0.02413141  3.11038625  -0.02435982  1
  Mo  Mo6  1  1.56933849  4.76449260  1.53692598  1
  Mo  Mo7  1  -0.00474197  3.12156266  3.20039298  1
  Mo  Mo8  1  1.58710078  4.69851172  4.71513836  1
  Mo  Mo9  1  -0.03584801  3.12666475  6.38301505  1
  Mo  Mo10  1  1.52110059  4.76620897  7.89622856  1
  Mo  Mo11  1  -0.01855445  6.35770185  -0.07535740  1
  Mo  Mo12  1  1.53407597  7.95202339  1.56094245  1
  Mo  Mo13  1  -0.03748133  6.35472537  3.08827314  1
  Mo  Mo14  1  1.49925134  7.93729356  4.77286993  1
  Mo  Mo15  1  0.04728443  6.39876765  6.28886526  1
  Mo  Mo16  1  1.53945821  7.88952371  7.91565043  1
  Mo  Mo17  1  3.12682668  -0.04136430  -0.01194577  1
  Mo  Mo18  1  4.71100548  1.55462529  1.57151748  1
  Mo  Mo19  1  3.18710915  -0.02511110  3.16853036  1
  Mo  Mo20  1  4.77379364  1.54622192  4.73470272  1
  Mo  Mo21  1  3.17184477  0.05587097  6.35120398  1
  Mo  Mo22  1  4.74709962  1.54985034  7.88118295  1
  Mo  Mo23  1  3.17680507  3.16207245  -0.06272718  1
  Mo  Mo24  1  4.80953949  4.75322778  1.62415318  1
  Mo  Mo25  1  3.19111570  3.15114591  3.18973684  1
  Mo  Mo26  1  4.73594505  4.72813964  4.80606516  1
  Mo  Mo27  1  3.09488623  3.15325442  6.34763666  1
  Mo  Mo28  1  4.74820684  4.71555345  7.94691759  1
  Mo  Mo29  1  3.17519598  6.33979414  0.02665792  1
  Mo  Mo30  1  4.78472609  7.91099006  1.58165385  1
  Mo  Mo31  1  3.07416123  6.32257133  3.19122724  1
  Mo  Mo32  1  4.74745308  7.91427556  4.79735376  1
  Mo  Mo33  1  3.11070015  6.30761375  6.33118648  1
  Mo  Mo34  1  4.74257608  7.93154235  7.88926359  1
  Mo  Mo35  1  6.35337594  -0.00314269  -0.00485029  1
  Mo  Mo36  1  7.96980177  1.56471688  1.57687116  1
  Mo  Mo37  1  6.31561523  -0.00156508  3.17197088  1
  Mo  Mo38  1  8.00605875  1.59062148  4.74185282  1
  Mo  Mo39  1  6.33324288  0.02918411  6.31451204  1
  Mo  Mo40  1  7.96043517  1.57135729  7.94325501  1
  Mo  Mo41  1  6.33557742  3.13006920  -0.03768794  1
  Mo  Mo42  1  7.97990527  4.80031204  1.56915867  1
  Mo  Mo43  1  6.32288763  3.22523597  3.13915789  1
  Mo  Mo44  1  8.00594789  4.74667214  4.76543075  1
  Mo  Mo45  1  6.34248068  3.17136998  6.26821208  1
  Mo  Mo46  1  7.89968427  4.80903090  7.91530766  1
  Mo  Mo47  1  6.34468407  6.31294951  -0.02535917  1
  Mo  Mo48  1  7.93418798  7.94728427  1.56547018  1
  Mo  Mo49  1  6.31350477  6.31288310  3.19290095  1
  Mo  Mo50  1  7.86233765  7.96296229  4.73620601  1
  Mo  Mo51  1  6.33925076  6.28817995  6.29195639  1
  Mo  Mo52  1  7.87495332  7.92101606  7.92647836  1
