# generated using pymatgen
data_Mo
_symmetry_space_group_name_H-M   'P 1'
_cell_length_a   9.48969964
_cell_length_b   9.48969964
_cell_length_c   9.48969964
_cell_angle_alpha   90.00000000
_cell_angle_beta   90.00000000
_cell_angle_gamma   90.00000000
_symmetry_Int_Tables_number   1
_chemical_formula_structural   Mo
_chemical_formula_sum   Mo53
_cell_volume   854.58919962
_cell_formula_units_Z   53
loop_
 _symmetry_equiv_pos_site_id
 _symmetry_equiv_pos_as_xyz
  1  'x, y, z'
loop_
 _atom_site_type_symbol
 _atom_site_label
 _atom_site_symmetry_multiplicity
 _atom_site_fract_x
 _atom_site_fract_y
 _atom_site_fract_z
 _atom_site_occupancy
  Mo  Mo0  1  1.61317246  1.59716103  1.52092130  1
  Mo  Mo1  1  -0.03496665  -0.00563487  3.15271085  1
  Mo  Mo2  1  1.67476884  1.49565746  4.80475810  1
  Mo  Mo3  1  -0.05302815  -0.02650001  6.34426187  1
  Mo  Mo4  1  1.60465851  1.57214394  7.88985162  1
  Mo  Mo5  1  0.00788822  3.22139205  -0.00958363  1
  Mo  Mo6  1  1.58011376  4.78825616  1.50911307  1
  Mo  Mo7  1  0.01313240  3.18333632  3.20862808  1
  Mo  Mo8  1  1.52310278  4.77770840  4.79619393  1
  Mo  Mo9  1  0.03355298  3.23595089  6.33525894  1
  Mo  Mo10  1  1.61030426  4.73582291  7.92826683  1
  Mo  Mo11  1  0.01123070  6.35808324  0.01157231  1
  Mo  Mo12  1  1.51127480  7.97427265  1.53678685  1
  Mo  Mo13  1  -0.05457743  6.25998837  3.15304129  1
  Mo  Mo14  1  1.52239972  7.86922294  4.66305908  1
  Mo  Mo15  1  -0.07038726  6.28653576  6.28338353  1
  Mo  Mo16  1  1.57165885  7.88469124  7.92239924  1
  Mo  Mo17  1  3.12378295  0.03956017  0.01313454  1
  Mo  Mo18  1  4.78265508  1.52501596  1.54386916  1
  Mo  Mo19  1  3.12665979  -0.01068077  3.18632193  1
  Mo  Mo20  1  4.81507906  1.56669339  4.75692097  1
  Mo  Mo21  1  3.16418145  -0.05124968  6.31007816  1
  Mo  Mo22  1  4.74387205  1.52045322  7.94684524  1
  Mo  Mo23  1  3.17115265  3.19293179  0.05473951  1
  Mo  Mo24  1  4.72337012  4.76040832  1.55926918  1
  Mo  Mo25  1  3.12371553  3.24695733  3.16479669  1
  Mo  Mo26  1  4.78295767  4.74024664  4.67829561  1
  Mo  Mo27  1  3.30556567  3.21529581  6.28134609  1
  Mo  Mo28  1  4.76847203  4.77040850  7.89902165  1
  Mo  Mo29  1  3.22070285  6.30716348  0.03050739  1
  Mo  Mo30  1  4.71356560  7.97785502  1.62238979  1
  Mo  Mo31  1  3.18169134  6.32910903  3.15182666  1
  Mo  Mo32  1  4.70852520  7.89336982  4.78757042  1
  Mo  Mo33  1  3.19149451  6.32009392  6.30440502  1
  Mo  Mo34  1  4.72472131  7.89283580  8.00389249  1
  Mo  Mo35  1  6.35781743  -0.03142397  -0.03815165  1
  Mo  Mo36  1  8.01369770  1.62597197  1.60751311  1
  Mo  Mo37  1  6.28076239  -0.04821720  3.14869836  1
  Mo  Mo38  1  7.98774389  1.57288163  4.80136870  1
  Mo  Mo39  1  6.31489498  0.02895209  6.35250335  1
  Mo  Mo40  1  7.94605229  1.60130472  7.92361780  1
  Mo  Mo41  1  6.22918077  3.07716521  0.03367548  1
  Mo  Mo42  1  7.95402381  4.68536348  1.57576389  1
  Mo  Mo43  1  6.30097949  3.08978490  3.14597808  1
  Mo  Mo44  1  7.86453451  4.75994307  4.68571445  1
  Mo  Mo45  1  6.33499701  3.19430456  6.31532563  1
  Mo  Mo46  1  7.87725468  4.73344709  7.92889298  1
  Mo  Mo47  1  6.32115722  6.25345934  -0.00370725  1
  Mo  Mo48  1  7.91625653  7.97932519  1.56803551  1
  Mo  Mo49  1  6.28877992  6.31791590  3.12114596  1
  Mo  Mo50  1  7.90295914  7.96576216  4.77642944  1
  Mo  Mo51  1  6.30323433  6.35160087  6.28447429  1
  Mo  Mo52  1  7.88745408  7.91614554  7.94511092  1
