# generated using pymatgen
data_Mo
_symmetry_space_group_name_H-M   'P 1'
_cell_length_a   9.48969964
_cell_length_b   9.48969964
_cell_length_c   9.48969964
_cell_angle_alpha   90.00000000
_cell_angle_beta   90.00000000
_cell_angle_gamma   90.00000000
_symmetry_Int_Tables_number   1
_chemical_formula_structural   Mo
_chemical_formula_sum   Mo53
_cell_volume   854.58919962
_cell_formula_units_Z   53
loop_
 _symmetry_equiv_pos_site_id
 _symmetry_equiv_pos_as_xyz
  1  'x, y, z'
loop_
 _atom_site_type_symbol
 _atom_site_label
 _atom_site_symmetry_multiplicity
 _atom_site_fract_x
 _atom_site_fract_y
 _atom_site_fract_z
 _atom_site_occupancy
  Mo  Mo0  1  1.60218111  1.57913456  1.55034553  1
  Mo  Mo1  1  0.02875964  -0.00576432  3.09392133  1
  Mo  Mo2  1  1.58534676  1.58071553  4.70039277  1
  Mo  Mo3  1  0.04804819  0.04270646  6.35241202  1
  Mo  Mo4  1  1.61141174  1.54476921  7.84111604  1
  Mo  Mo5  1  -0.00307614  3.07336960  0.03663238  1
  Mo  Mo6  1  1.57122293  4.77533025  1.59428724  1
  Mo  Mo7  1  -0.02219924  3.16903527  3.20431915  1
  Mo  Mo8  1  1.62989927  4.72394603  4.68721699  1
  Mo  Mo9  1  0.03691027  3.20340445  6.33776199  1
  Mo  Mo10  1  1.56103013  4.74894021  7.87568249  1
  Mo  Mo11  1  0.01810011  6.35813363  -0.00434957  1
  Mo  Mo12  1  1.55003995  7.97745034  1.53165046  1
  Mo  Mo13  1  0.00952414  6.29079253  3.14620742  1
  Mo  Mo14  1  1.50858586  7.85801098  4.78694486  1
  Mo  Mo15  1  -0.01360946  6.29818176  6.33145676  1
  Mo  Mo16  1  1.53497529  7.89275279  7.91120391  1
  Mo  Mo17  1  3.09387780  0.02044275  0.00749965  1
  Mo  Mo18  1  4.74772746  1.61122172  1.55687675  1
  Mo  Mo19  1  3.11930972  0.04381602  3.20149245  1
  Mo  Mo20  1  4.73331501  1.55423276  4.74195147  1
  Mo  Mo21  1  3.21035517  -0.01562027  6.37520087  1
  Mo  Mo22  1  4.78133617  1.51166547  7.87650871  1
  Mo  Mo23  1  3.10025607  3.23590792  -0.01470263  1
  Mo  Mo24  1  4.74260279  4.72522841  1.53057755  1
  Mo  Mo25  1  3.17689349  3.13594672  3.17687418  1
  Mo  Mo26  1  4.72773628  4.79589287  4.69172313  1
  Mo  Mo27  1  3.16444844  3.15206187  6.31149432  1
  Mo  Mo28  1  4.74532278  4.69288280  7.90588119  1
  Mo  Mo29  1  3.14054720  6.40676883  -0.02689006  1
  Mo  Mo30  1  4.71665170  7.98465917  1.56367666  1
  Mo  Mo31  1  3.15915363  6.33281876  3.14549250  1
  Mo  Mo32  1  4.72077045  7.98247065  4.67556108  1
  Mo  Mo33  1  3.18551528  6.30062767  6.31873757  1
  Mo  Mo34  1  4.74684841  7.89782673  7.99015247  1
  Mo  Mo35  1  6.37427990  -0.01689207  0.06829342  1
  Mo  Mo36  1  7.92909145  1.55369091  1.52823242  1
  Mo  Mo37  1  6.33538876  0.02243834  3.18950256  1
  Mo  Mo38  1  7.94401022  1.60687479  4.76739945  1
  Mo  Mo39  1  6.34833063  -0.04900884  6.28919177  1
  Mo  Mo40  1  7.96229180  1.54581731  7.95839160  1
  Mo  Mo41  1  6.32935853  3.18520980  -0.00863450  1
  Mo  Mo42  1  7.89596236  4.76065834  1.58560364  1
  Mo  Mo43  1  6.33064758  3.13845346  3.19572966  1
  Mo  Mo44  1  7.86554719  4.74043398  4.81592788  1
  Mo  Mo45  1  6.30821156  3.16799082  6.34071098  1
  Mo  Mo46  1  7.95773245  4.66849539  8.00512642  1
  Mo  Mo47  1  6.35657566  6.29900637  0.01361053  1
  Mo  Mo48  1  7.91766262  7.91650201  1.63306598  1
  Mo  Mo49  1  6.31919909  6.31213487  3.11218213  1
  Mo  Mo50  1  7.87772445  7.95360740  4.72353907  1
  Mo  Mo51  1  6.28279726  6.32695013  6.34871229  1
  Mo  Mo52  1  7.91361387  7.90611960  7.94634791  1
