# generated using pymatgen
data_Mo
_symmetry_space_group_name_H-M   'P 1'
_cell_length_a   9.48969964
_cell_length_b   9.48969964
_cell_length_c   9.48969964
_cell_angle_alpha   90.00000000
_cell_angle_beta   90.00000000
_cell_angle_gamma   90.00000000
_symmetry_Int_Tables_number   1
_chemical_formula_structural   Mo
_chemical_formula_sum   Mo53
_cell_volume   854.58919962
_cell_formula_units_Z   53
loop_
 _symmetry_equiv_pos_site_id
 _symmetry_equiv_pos_as_xyz
  1  'x, y, z'
loop_
 _atom_site_type_symbol
 _atom_site_label
 _atom_site_symmetry_multiplicity
 _atom_site_fract_x
 _atom_site_fract_y
 _atom_site_fract_z
 _atom_site_occupancy
  Mo  Mo0  1  1.55611708  1.58711701  1.60647364  1
  Mo  Mo1  1  0.01436347  0.00018565  3.14935898  1
  Mo  Mo2  1  1.50280363  1.56017599  4.66530894  1
  Mo  Mo3  1  0.07776740  0.02965750  6.34289518  1
  Mo  Mo4  1  1.59302705  1.54934780  7.84257430  1
  Mo  Mo5  1  -0.00425313  3.08061706  0.03956211  1
  Mo  Mo6  1  1.56169722  4.76022856  1.54733036  1
  Mo  Mo7  1  -0.05329119  3.12600871  3.19207552  1
  Mo  Mo8  1  1.61251873  4.70242956  4.66865905  1
  Mo  Mo9  1  -0.01496278  3.13918676  6.35593632  1
  Mo  Mo10  1  1.52305595  4.73937428  7.88267743  1
  Mo  Mo11  1  0.00899303  6.33443164  -0.01154424  1
  Mo  Mo12  1  1.56076199  7.92976700  1.56461108  1
  Mo  Mo13  1  0.03229512  6.31709515  3.16249800  1
  Mo  Mo14  1  1.50925053  7.93561219  4.79569499  1
  Mo  Mo15  1  0.05645174  6.38334380  6.33105446  1
  Mo  Mo16  1  1.50819029  7.89086266  7.88809315  1
  Mo  Mo17  1  3.14884380  0.02299407  0.00250272  1
  Mo  Mo18  1  4.71552191  1.63935350  1.52472342  1
  Mo  Mo19  1  3.15912143  0.00193459  3.20230405  1
  Mo  Mo20  1  4.72914124  1.56019104  4.72917832  1
  Mo  Mo21  1  3.18401956  0.02981129  6.36545785  1
  Mo  Mo22  1  4.81144274  1.49507589  7.89174138  1
  Mo  Mo23  1  3.13518046  3.21762357  -0.07943252  1
  Mo  Mo24  1  4.75292466  4.75761602  1.54317301  1
  Mo  Mo25  1  3.22417891  3.13392849  3.15917079  1
  Mo  Mo26  1  4.72850154  4.74791906  4.76062646  1
  Mo  Mo27  1  3.08327171  3.14810582  6.33934683  1
  Mo  Mo28  1  4.72196232  4.67931292  7.92967241  1
  Mo  Mo29  1  3.11914439  6.37273715  -0.01466088  1
  Mo  Mo30  1  4.72449379  7.97716531  1.53666135  1
  Mo  Mo31  1  3.13194654  6.34427359  3.13794895  1
  Mo  Mo32  1  4.73492653  7.94169569  4.71624946  1
  Mo  Mo33  1  3.14752422  6.31188199  6.29894029  1
  Mo  Mo34  1  4.78475659  7.93850200  7.92141177  1
  Mo  Mo35  1  6.36312951  0.00445142  0.01515623  1
  Mo  Mo36  1  7.90021140  1.53028092  1.54746165  1
  Mo  Mo37  1  6.36355820  0.03857929  3.18296620  1
  Mo  Mo38  1  7.95565462  1.60301260  4.70911564  1
  Mo  Mo39  1  6.37422006  -0.03684296  6.31801052  1
  Mo  Mo40  1  7.96478084  1.46986347  7.96484942  1
  Mo  Mo41  1  6.35160281  3.16427132  -0.04882082  1
  Mo  Mo42  1  7.94060385  4.77206754  1.64258697  1
  Mo  Mo43  1  6.32002206  3.25632079  3.20816264  1
  Mo  Mo44  1  7.93321439  4.75485967  4.84484305  1
  Mo  Mo45  1  6.31062615  3.15644118  6.32901397  1
  Mo  Mo46  1  7.95299705  4.71404833  8.00554543  1
  Mo  Mo47  1  6.34997508  6.34573974  -0.02523419  1
  Mo  Mo48  1  7.91632960  7.89580171  1.63628992  1
  Mo  Mo49  1  6.33930848  6.31880086  3.20178069  1
  Mo  Mo50  1  7.87747923  7.95426596  4.72062440  1
  Mo  Mo51  1  6.33541123  6.29094423  6.34095073  1
  Mo  Mo52  1  7.88743070  7.89977338  7.93666539  1
