# generated using pymatgen
data_Mo
_symmetry_space_group_name_H-M   'P 1'
_cell_length_a   9.48969964
_cell_length_b   9.48969964
_cell_length_c   9.48969964
_cell_angle_alpha   90.00000000
_cell_angle_beta   90.00000000
_cell_angle_gamma   90.00000000
_symmetry_Int_Tables_number   1
_chemical_formula_structural   Mo
_chemical_formula_sum   Mo53
_cell_volume   854.58919962
_cell_formula_units_Z   53
loop_
 _symmetry_equiv_pos_site_id
 _symmetry_equiv_pos_as_xyz
  1  'x, y, z'
loop_
 _atom_site_type_symbol
 _atom_site_label
 _atom_site_symmetry_multiplicity
 _atom_site_fract_x
 _atom_site_fract_y
 _atom_site_fract_z
 _atom_site_occupancy
  Mo  Mo0  1  1.53516988  1.58708510  1.60618942  1
  Mo  Mo1  1  -0.03101368  -0.02183379  3.17533451  1
  Mo  Mo2  1  1.50093666  1.53850154  4.68286825  1
  Mo  Mo3  1  0.01468793  -0.00769206  6.34673788  1
  Mo  Mo4  1  1.56049923  1.55967118  7.89470733  1
  Mo  Mo5  1  -0.00150668  3.12911104  0.02885088  1
  Mo  Mo6  1  1.55894413  4.71645139  1.47958684  1
  Mo  Mo7  1  -0.03335346  3.13187936  3.16528155  1
  Mo  Mo8  1  1.53298796  4.71820652  4.69707295  1
  Mo  Mo9  1  -0.05465453  3.13455055  6.36491735  1
  Mo  Mo10  1  1.49929522  4.72531650  7.90122801  1
  Mo  Mo11  1  -0.00393870  6.33538711  -0.00286882  1
  Mo  Mo12  1  1.55251114  7.89543272  1.58980203  1
  Mo  Mo13  1  0.04837955  6.31721827  3.20637325  1
  Mo  Mo14  1  1.57158945  7.97855711  4.70899710  1
  Mo  Mo15  1  0.07659403  6.40687042  6.31678246  1
  Mo  Mo16  1  1.53205519  7.91084644  7.92051745  1
  Mo  Mo17  1  3.18279330  0.02792262  0.01311555  1
  Mo  Mo18  1  4.73320372  1.63457466  1.49874797  1
  Mo  Mo19  1  3.20573304  -0.04570633  3.19764698  1
  Mo  Mo20  1  4.75392984  1.57401562  4.72193015  1
  Mo  Mo21  1  3.17595269  0.04086005  6.33079970  1
  Mo  Mo22  1  4.80301520  1.50965333  7.91745861  1
  Mo  Mo23  1  3.18710674  3.17155850  -0.05823286  1
  Mo  Mo24  1  4.75481572  4.82188320  1.55856659  1
  Mo  Mo25  1  3.20909458  3.18663532  3.12875708  1
  Mo  Mo26  1  4.73106621  4.70551974  4.82122258  1
  Mo  Mo27  1  3.09942584  3.16536256  6.32500704  1
  Mo  Mo28  1  4.70939586  4.73337154  7.92135330  1
  Mo  Mo29  1  3.15762161  6.31736414  -0.03840886  1
  Mo  Mo30  1  4.73022669  7.96236502  1.55613083  1
  Mo  Mo31  1  3.17432070  6.33406315  3.15717149  1
  Mo  Mo32  1  4.73479729  7.86921589  4.78494546  1
  Mo  Mo33  1  3.14984989  6.33674870  6.28513703  1
  Mo  Mo34  1  4.75965972  7.91351184  7.87369355  1
  Mo  Mo35  1  6.36350793  0.00339326  -0.05355815  1
  Mo  Mo36  1  7.89260303  1.55865216  1.58456247  1
  Mo  Mo37  1  6.32465046  0.02829994  3.14647745  1
  Mo  Mo38  1  7.90602554  1.57945168  4.69301118  1
  Mo  Mo39  1  6.38297613  0.01827302  6.31839586  1
  Mo  Mo40  1  7.95181947  1.42969048  7.96134145  1
  Mo  Mo41  1  6.34527643  3.13657466  -0.03422892  1
  Mo  Mo42  1  7.97845531  4.74343120  1.66857796  1
  Mo  Mo43  1  6.30701959  3.30420313  3.19129285  1
  Mo  Mo44  1  7.99568217  4.77713251  4.82006115  1
  Mo  Mo45  1  6.33075584  3.14187426  6.32065557  1
  Mo  Mo46  1  7.91810448  4.75049913  7.98491547  1
  Mo  Mo47  1  6.31016987  6.35204547  -0.04884663  1
  Mo  Mo48  1  7.89864238  7.91554266  1.60897519  1
  Mo  Mo49  1  6.32887739  6.34212891  3.27065930  1
  Mo  Mo50  1  7.92047045  7.95090491  4.75051211  1
  Mo  Mo51  1  6.36617844  6.27068811  6.32652818  1
  Mo  Mo52  1  7.88583692  7.90097836  7.93148963  1
