# generated using pymatgen
data_Mo
_symmetry_space_group_name_H-M   'P 1'
_cell_length_a   9.48969964
_cell_length_b   9.48969964
_cell_length_c   9.48969964
_cell_angle_alpha   90.00000000
_cell_angle_beta   90.00000000
_cell_angle_gamma   90.00000000
_symmetry_Int_Tables_number   1
_chemical_formula_structural   Mo
_chemical_formula_sum   Mo53
_cell_volume   854.58919962
_cell_formula_units_Z   53
loop_
 _symmetry_equiv_pos_site_id
 _symmetry_equiv_pos_as_xyz
  1  'x, y, z'
loop_
 _atom_site_type_symbol
 _atom_site_label
 _atom_site_symmetry_multiplicity
 _atom_site_fract_x
 _atom_site_fract_y
 _atom_site_fract_z
 _atom_site_occupancy
  Mo  Mo0  1  1.57098220  1.55727049  1.49601702  1
  Mo  Mo1  1  -0.00107562  0.00355496  3.08437035  1
  Mo  Mo2  1  1.50109953  1.57950828  4.78908658  1
  Mo  Mo3  1  0.05592412  0.04890854  6.35259325  1
  Mo  Mo4  1  1.51843595  1.55498051  7.93011420  1
  Mo  Mo5  1  0.02067359  3.12707861  0.00421498  1
  Mo  Mo6  1  1.60167014  4.79025191  1.54923812  1
  Mo  Mo7  1  0.00616175  3.13988898  3.21042861  1
  Mo  Mo8  1  1.63740907  4.76429183  4.75000036  1
  Mo  Mo9  1  0.06169816  3.22291095  6.28900187  1
  Mo  Mo10  1  1.53555582  4.77181668  7.89489669  1
  Mo  Mo11  1  -0.03117351  6.37388437  -0.01502805  1
  Mo  Mo12  1  1.62081859  7.95544771  1.53009295  1
  Mo  Mo13  1  -0.02756749  6.30378557  3.07836814  1
  Mo  Mo14  1  1.62916102  7.93711344  4.81253573  1
  Mo  Mo15  1  -0.02153346  6.32137014  6.32175585  1
  Mo  Mo16  1  1.54385815  7.99784571  7.95343552  1
  Mo  Mo17  1  3.12669440  -0.04653102  0.01514552  1
  Mo  Mo18  1  4.74493303  1.57262232  1.57309023  1
  Mo  Mo19  1  3.09481262  0.02501232  3.15268366  1
  Mo  Mo20  1  4.65876737  1.59481742  4.72479163  1
  Mo  Mo21  1  3.19667706  -0.02324008  6.33305114  1
  Mo  Mo22  1  4.67914340  1.55170492  7.89798597  1
  Mo  Mo23  1  3.22275006  3.14924726  0.05447756  1
  Mo  Mo24  1  4.77673746  4.68980098  1.59363097  1
  Mo  Mo25  1  3.15017386  3.13266754  3.21229417  1
  Mo  Mo26  1  4.80054393  4.78314410  4.68451424  1
  Mo  Mo27  1  3.20690052  3.16623003  6.33754893  1
  Mo  Mo28  1  4.74145355  4.67892644  7.92373063  1
  Mo  Mo29  1  3.11804198  6.28109815  0.04412373  1
  Mo  Mo30  1  4.74989457  7.92501884  1.58132213  1
  Mo  Mo31  1  3.17383973  6.29771158  3.17441843  1
  Mo  Mo32  1  4.80805817  7.97643066  4.72196957  1
  Mo  Mo33  1  3.18270493  6.28429158  6.33866280  1
  Mo  Mo34  1  4.72363789  7.92013750  8.01455668  1
  Mo  Mo35  1  6.30604991  0.00307084  -0.01311328  1
  Mo  Mo36  1  7.96436050  1.55371392  1.51665658  1
  Mo  Mo37  1  6.28072277  -0.01644117  3.13547064  1
  Mo  Mo38  1  7.91380925  1.51226767  4.76866582  1
  Mo  Mo39  1  6.26670232  -0.03287535  6.26981497  1
  Mo  Mo40  1  7.83683761  1.66570616  7.90931639  1
  Mo  Mo41  1  6.34575291  3.23727349  0.02977177  1
  Mo  Mo42  1  7.95850296  4.77347712  1.54828021  1
  Mo  Mo43  1  6.33630365  3.09342502  3.17336023  1
  Mo  Mo44  1  7.87108258  4.68705691  4.72735264  1
  Mo  Mo45  1  6.30045409  3.20304668  6.30601892  1
  Mo  Mo46  1  7.89452012  4.72394425  7.94848158  1
  Mo  Mo47  1  6.27673042  6.32389833  0.03517156  1
  Mo  Mo48  1  7.96403565  7.92279874  1.57561269  1
  Mo  Mo49  1  6.35112594  6.30535881  3.11688674  1
  Mo  Mo50  1  8.02584995  7.88104843  4.76493739  1
  Mo  Mo51  1  6.30016116  6.36157872  6.34106675  1
  Mo  Mo52  1  7.94737940  7.91089493  7.95537100  1
