# generated using pymatgen
data_Mo
_symmetry_space_group_name_H-M   'P 1'
_cell_length_a   9.48969964
_cell_length_b   9.48969964
_cell_length_c   9.48969964
_cell_angle_alpha   90.00000000
_cell_angle_beta   90.00000000
_cell_angle_gamma   90.00000000
_symmetry_Int_Tables_number   1
_chemical_formula_structural   Mo
_chemical_formula_sum   Mo53
_cell_volume   854.58919962
_cell_formula_units_Z   53
loop_
 _symmetry_equiv_pos_site_id
 _symmetry_equiv_pos_as_xyz
  1  'x, y, z'
loop_
 _atom_site_type_symbol
 _atom_site_label
 _atom_site_symmetry_multiplicity
 _atom_site_fract_x
 _atom_site_fract_y
 _atom_site_fract_z
 _atom_site_occupancy
  Mo  Mo0  1  1.57651115  1.66340047  1.57148034  1
  Mo  Mo1  1  0.01744613  -0.04012081  3.18582427  1
  Mo  Mo2  1  1.54678884  1.62680795  4.71974355  1
  Mo  Mo3  1  -0.04841129  -0.00151552  6.38394077  1
  Mo  Mo4  1  1.58332199  1.61859490  7.87577544  1
  Mo  Mo5  1  0.03688380  3.16794501  0.01043568  1
  Mo  Mo6  1  1.59514135  4.73636564  1.59262239  1
  Mo  Mo7  1  -0.03754156  3.14128245  3.16696117  1
  Mo  Mo8  1  1.56800323  4.79117385  4.70956182  1
  Mo  Mo9  1  -0.03068694  3.19179457  6.35301951  1
  Mo  Mo10  1  1.57161246  4.77180927  7.92486160  1
  Mo  Mo11  1  -0.00213949  6.34434916  -0.05716328  1
  Mo  Mo12  1  1.59681150  7.94107669  1.63222682  1
  Mo  Mo13  1  -0.00788522  6.28060692  3.18698309  1
  Mo  Mo14  1  1.53948947  7.97724115  4.82564418  1
  Mo  Mo15  1  -0.00741922  6.33661890  6.26611391  1
  Mo  Mo16  1  1.50470132  7.90577265  7.91229374  1
  Mo  Mo17  1  3.09859978  0.00577507  -0.01237632  1
  Mo  Mo18  1  4.71991490  1.54396220  1.50735902  1
  Mo  Mo19  1  3.12050103  -0.04630384  3.23297782  1
  Mo  Mo20  1  4.75079892  1.50129605  4.75810890  1
  Mo  Mo21  1  3.15657290  -0.02982141  6.37222344  1
  Mo  Mo22  1  4.75208098  1.51398961  7.89909121  1
  Mo  Mo23  1  3.10367753  3.13733531  0.00997790  1
  Mo  Mo24  1  4.78135478  4.68949616  1.57224586  1
  Mo  Mo25  1  3.17579720  3.14693876  3.19431019  1
  Mo  Mo26  1  4.75349719  4.75595191  4.72532624  1
  Mo  Mo27  1  3.12088486  3.19847129  6.34196224  1
  Mo  Mo28  1  4.72421100  4.78892443  7.96368461  1
  Mo  Mo29  1  3.12801090  6.28998781  0.04331206  1
  Mo  Mo30  1  4.77743030  7.97258872  1.58895457  1
  Mo  Mo31  1  3.13004731  6.39041723  3.17784010  1
  Mo  Mo32  1  4.74053305  7.89802536  4.70913266  1
  Mo  Mo33  1  3.22065001  6.32356797  6.33365587  1
  Mo  Mo34  1  4.77706290  7.89882831  7.96530401  1
  Mo  Mo35  1  6.38819672  0.06279988  0.02008913  1
  Mo  Mo36  1  7.97352657  1.51906254  1.52831878  1
  Mo  Mo37  1  6.39764411  -0.01475319  3.16811443  1
  Mo  Mo38  1  7.91748285  1.52044184  4.69873568  1
  Mo  Mo39  1  6.39983260  0.02460372  6.32808158  1
  Mo  Mo40  1  7.86490952  1.58849945  7.83882380  1
  Mo  Mo41  1  6.34352367  3.12388856  -0.00542252  1
  Mo  Mo42  1  7.98837053  4.65765836  1.54643974  1
  Mo  Mo43  1  6.32686615  3.11183326  3.19626512  1
  Mo  Mo44  1  7.95602192  4.73862960  4.73627235  1
  Mo  Mo45  1  6.27277094  3.16779277  6.29917731  1
  Mo  Mo46  1  7.92643427  4.82164066  7.89504039  1
  Mo  Mo47  1  6.31996147  6.36332180  -0.00907804  1
  Mo  Mo48  1  7.97698138  7.95288076  1.57224279  1
  Mo  Mo49  1  6.33173485  6.28450936  3.14653324  1
  Mo  Mo50  1  7.92433941  7.88440989  4.71606058  1
  Mo  Mo51  1  6.30093488  6.32647242  6.27578697  1
  Mo  Mo52  1  7.87445888  7.95191687  7.92334599  1
