# generated using pymatgen
data_Mo
_symmetry_space_group_name_H-M   'P 1'
_cell_length_a   9.48969964
_cell_length_b   9.48969964
_cell_length_c   9.48969964
_cell_angle_alpha   90.00000000
_cell_angle_beta   90.00000000
_cell_angle_gamma   90.00000000
_symmetry_Int_Tables_number   1
_chemical_formula_structural   Mo
_chemical_formula_sum   Mo53
_cell_volume   854.58919962
_cell_formula_units_Z   53
loop_
 _symmetry_equiv_pos_site_id
 _symmetry_equiv_pos_as_xyz
  1  'x, y, z'
loop_
 _atom_site_type_symbol
 _atom_site_label
 _atom_site_symmetry_multiplicity
 _atom_site_fract_x
 _atom_site_fract_y
 _atom_site_fract_z
 _atom_site_occupancy
  Mo  Mo0  1  1.57287487  1.62358176  1.58770949  1
  Mo  Mo1  1  0.00032935  -0.02169992  3.18859508  1
  Mo  Mo2  1  1.60291701  1.63166407  4.70594009  1
  Mo  Mo3  1  -0.05854214  -0.00588647  6.41724625  1
  Mo  Mo4  1  1.56822643  1.60679738  7.84790462  1
  Mo  Mo5  1  -0.02226227  3.15047792  -0.03653538  1
  Mo  Mo6  1  1.60165761  4.71462561  1.56276659  1
  Mo  Mo7  1  0.01159375  3.14414925  3.17250506  1
  Mo  Mo8  1  1.53113326  4.78092118  4.74986926  1
  Mo  Mo9  1  -0.05283956  3.20039136  6.37683673  1
  Mo  Mo10  1  1.56132912  4.77817625  7.90605969  1
  Mo  Mo11  1  -0.00728318  6.36217641  -0.02561770  1
  Mo  Mo12  1  1.56617409  7.89993817  1.64497094  1
  Mo  Mo13  1  0.01425273  6.28383004  3.20861567  1
  Mo  Mo14  1  1.53491613  7.96849038  4.73578035  1
  Mo  Mo15  1  0.00698636  6.34310811  6.29856088  1
  Mo  Mo16  1  1.55607989  7.87834820  7.95443776  1
  Mo  Mo17  1  3.07545233  -0.00525726  0.01192910  1
  Mo  Mo18  1  4.77074596  1.55261365  1.51876898  1
  Mo  Mo19  1  3.21579722  -0.01037218  3.23752191  1
  Mo  Mo20  1  4.79406213  1.50936177  4.72793867  1
  Mo  Mo21  1  3.17051397  -0.00471617  6.37392572  1
  Mo  Mo22  1  4.75475737  1.53978031  7.88461072  1
  Mo  Mo23  1  3.14301294  3.14369207  -0.00790412  1
  Mo  Mo24  1  4.78685001  4.77256124  1.57248026  1
  Mo  Mo25  1  3.18754488  3.19903375  3.17311898  1
  Mo  Mo26  1  4.68536445  4.69145673  4.77541299  1
  Mo  Mo27  1  3.15008315  3.19423386  6.29380321  1
  Mo  Mo28  1  4.74170145  4.80732462  7.94435057  1
  Mo  Mo29  1  3.17221146  6.33468268  -0.01515473  1
  Mo  Mo30  1  4.79581679  8.00045756  1.59018731  1
  Mo  Mo31  1  3.18666033  6.32951240  3.19671022  1
  Mo  Mo32  1  4.72887831  7.87301082  4.78207569  1
  Mo  Mo33  1  3.16413119  6.35440458  6.32540496  1
  Mo  Mo34  1  4.73001416  7.89281120  7.91323476  1
  Mo  Mo35  1  6.43613644  -0.00048198  0.00834066  1
  Mo  Mo36  1  7.98387223  1.54422189  1.56671012  1
  Mo  Mo37  1  6.33679324  -0.01860927  3.15231014  1
  Mo  Mo38  1  7.87731335  1.55314005  4.67461615  1
  Mo  Mo39  1  6.36744245  0.03168098  6.31423277  1
  Mo  Mo40  1  7.94271021  1.53226450  7.86825811  1
  Mo  Mo41  1  6.31069154  3.14936899  -0.00912784  1
  Mo  Mo42  1  7.93318224  4.68131234  1.55617240  1
  Mo  Mo43  1  6.28689540  3.15706655  3.17507773  1
  Mo  Mo44  1  7.93408150  4.74847377  4.72910502  1
  Mo  Mo45  1  6.30560965  3.16686919  6.33415033  1
  Mo  Mo46  1  7.88340777  4.80162455  7.91455515  1
  Mo  Mo47  1  6.36011976  6.33316962  -0.02121389  1
  Mo  Mo48  1  7.93215786  7.93193683  1.57656569  1
  Mo  Mo49  1  6.31047780  6.28778864  3.17088579  1
  Mo  Mo50  1  7.85461453  7.89911151  4.72512656  1
  Mo  Mo51  1  6.33610175  6.28726979  6.26175766  1
  Mo  Mo52  1  7.88549445  7.91835345  7.92665964  1
