# generated using pymatgen
data_Mo
_symmetry_space_group_name_H-M   'P 1'
_cell_length_a   9.48969964
_cell_length_b   9.48969964
_cell_length_c   9.48969964
_cell_angle_alpha   90.00000000
_cell_angle_beta   90.00000000
_cell_angle_gamma   90.00000000
_symmetry_Int_Tables_number   1
_chemical_formula_structural   Mo
_chemical_formula_sum   Mo53
_cell_volume   854.58919962
_cell_formula_units_Z   53
loop_
 _symmetry_equiv_pos_site_id
 _symmetry_equiv_pos_as_xyz
  1  'x, y, z'
loop_
 _atom_site_type_symbol
 _atom_site_label
 _atom_site_symmetry_multiplicity
 _atom_site_fract_x
 _atom_site_fract_y
 _atom_site_fract_z
 _atom_site_occupancy
  Mo  Mo0  1  1.58364358  1.54545222  1.57727072  1
  Mo  Mo1  1  -0.00520823  0.02319927  3.15727982  1
  Mo  Mo2  1  1.63045577  1.58213728  4.71570260  1
  Mo  Mo3  1  0.01875139  0.01335594  6.38404761  1
  Mo  Mo4  1  1.56325000  1.55566556  7.84956911  1
  Mo  Mo5  1  -0.06087451  3.11134560  -0.04532648  1
  Mo  Mo6  1  1.59336957  4.73956216  1.51696675  1
  Mo  Mo7  1  0.03802370  3.16086379  3.20679601  1
  Mo  Mo8  1  1.54501491  4.75343205  4.77882186  1
  Mo  Mo9  1  -0.02710651  3.21325687  6.34328665  1
  Mo  Mo10  1  1.54666997  4.77186054  7.90056651  1
  Mo  Mo11  1  0.00709303  6.35660246  0.03479422  1
  Mo  Mo12  1  1.56986979  7.87906947  1.62448957  1
  Mo  Mo13  1  0.01676699  6.29892479  3.16862741  1
  Mo  Mo14  1  1.53297111  7.94928103  4.68612455  1
  Mo  Mo15  1  0.00622735  6.35035437  6.34576190  1
  Mo  Mo16  1  1.60001125  7.90571833  7.98730557  1
  Mo  Mo17  1  3.09071833  -0.01035605  0.03818479  1
  Mo  Mo18  1  4.80994545  1.58197686  1.53233312  1
  Mo  Mo19  1  3.25516231  0.04419554  3.19498803  1
  Mo  Mo20  1  4.78111463  1.57954530  4.69631124  1
  Mo  Mo21  1  3.16823538  0.03226474  6.34759356  1
  Mo  Mo22  1  4.75138229  1.55907882  7.89647367  1
  Mo  Mo23  1  3.19938162  3.17923515  -0.02959303  1
  Mo  Mo24  1  4.75206627  4.83474861  1.56618635  1
  Mo  Mo25  1  3.19110566  3.21590214  3.15322766  1
  Mo  Mo26  1  4.68082212  4.68211589  4.79409785  1
  Mo  Mo27  1  3.19029081  3.16958050  6.28824412  1
  Mo  Mo28  1  4.74978517  4.75363751  7.90916013  1
  Mo  Mo29  1  3.21168452  6.36228589  -0.04638379  1
  Mo  Mo30  1  4.76504387  7.97658756  1.57880780  1
  Mo  Mo31  1  3.22756480  6.25518861  3.19431618  1
  Mo  Mo32  1  4.72745099  7.89163832  4.82330135  1
  Mo  Mo33  1  3.09752520  6.34014514  6.31775626  1
  Mo  Mo34  1  4.70045991  7.92907657  7.92242660  1
  Mo  Mo35  1  6.42096204  -0.05104782  -0.03688674  1
  Mo  Mo36  1  7.97688121  1.57849982  1.58099406  1
  Mo  Mo37  1  6.28210857  -0.02568986  3.14122303  1
  Mo  Mo38  1  7.90690093  1.59158935  4.68452143  1
  Mo  Mo39  1  6.27793836  -0.01690870  6.31606696  1
  Mo  Mo40  1  7.97287375  1.52096196  7.93751004  1
  Mo  Mo41  1  6.27410493  3.20138518  -0.01232433  1
  Mo  Mo42  1  7.87961569  4.75268476  1.58062322  1
  Mo  Mo43  1  6.29014630  3.19910475  3.14717606  1
  Mo  Mo44  1  7.86445047  4.72190553  4.71984095  1
  Mo  Mo45  1  6.34181760  3.17409060  6.35363546  1
  Mo  Mo46  1  7.86971662  4.72447935  7.95851908  1
  Mo  Mo47  1  6.37663940  6.31307850  -0.02497648  1
  Mo  Mo48  1  7.88086630  7.89256032  1.60821782  1
  Mo  Mo49  1  6.30788790  6.29142099  3.18406345  1
  Mo  Mo50  1  7.83396151  7.92444820  4.74139230  1
  Mo  Mo51  1  6.33983068  6.27094485  6.29976263  1
  Mo  Mo52  1  7.91287305  7.86780619  7.92936755  1
