# generated using pymatgen
data_Mo
_symmetry_space_group_name_H-M   'P 1'
_cell_length_a   9.48969964
_cell_length_b   9.48969964
_cell_length_c   9.48969964
_cell_angle_alpha   90.00000000
_cell_angle_beta   90.00000000
_cell_angle_gamma   90.00000000
_symmetry_Int_Tables_number   1
_chemical_formula_structural   Mo
_chemical_formula_sum   Mo53
_cell_volume   854.58919962
_cell_formula_units_Z   53
loop_
 _symmetry_equiv_pos_site_id
 _symmetry_equiv_pos_as_xyz
  1  'x, y, z'
loop_
 _atom_site_type_symbol
 _atom_site_label
 _atom_site_symmetry_multiplicity
 _atom_site_fract_x
 _atom_site_fract_y
 _atom_site_fract_z
 _atom_site_occupancy
  Mo  Mo0  1  1.62259383  1.52811707  1.52527880  1
  Mo  Mo1  1  -0.01390894  -0.00845073  3.06849704  1
  Mo  Mo2  1  1.60784404  1.48633979  4.71474561  1
  Mo  Mo3  1  0.04271827  0.01085351  6.28214627  1
  Mo  Mo4  1  1.59814997  1.50271638  7.96280324  1
  Mo  Mo5  1  0.03482352  3.11164416  0.08374093  1
  Mo  Mo6  1  1.53718392  4.74433651  1.52445955  1
  Mo  Mo7  1  -0.02323486  3.20390948  3.17812758  1
  Mo  Mo8  1  1.57156755  4.72214843  4.70204348  1
  Mo  Mo9  1  0.04648407  3.16994463  6.32427306  1
  Mo  Mo10  1  1.51702594  4.69467352  7.91475475  1
  Mo  Mo11  1  0.06992930  6.32051068  0.00871976  1
  Mo  Mo12  1  1.56382077  7.95516885  1.53263469  1
  Mo  Mo13  1  0.00044678  6.31214397  3.15062807  1
  Mo  Mo14  1  1.51303018  7.86456038  4.72626101  1
  Mo  Mo15  1  0.00955654  6.32910953  6.31722635  1
  Mo  Mo16  1  1.51831169  7.96184445  7.92427299  1
  Mo  Mo17  1  3.19683224  0.05461743  0.00861457  1
  Mo  Mo18  1  4.77229581  1.62881104  1.53057089  1
  Mo  Mo19  1  3.10451112  -0.00099481  3.13748806  1
  Mo  Mo20  1  4.78294494  1.61498874  4.73331305  1
  Mo  Mo21  1  3.17110680  0.04197568  6.30209142  1
  Mo  Mo22  1  4.78501601  1.52299017  7.92848827  1
  Mo  Mo23  1  3.11991794  3.24436336  -0.01841398  1
  Mo  Mo24  1  4.70934714  4.74685736  1.53602999  1
  Mo  Mo25  1  3.16059876  3.16811676  3.12619430  1
  Mo  Mo26  1  4.79696987  4.80693553  4.72529205  1
  Mo  Mo27  1  3.16341339  3.16260039  6.35352655  1
  Mo  Mo28  1  4.72128590  4.69821997  7.87860079  1
  Mo  Mo29  1  3.20070789  6.34509314  -0.02274686  1
  Mo  Mo30  1  4.68555683  7.91310078  1.60858847  1
  Mo  Mo31  1  3.13772617  6.32914005  3.16217763  1
  Mo  Mo32  1  4.68526065  7.95172009  4.73471723  1
  Mo  Mo33  1  3.17337180  6.30189952  6.31726018  1
  Mo  Mo34  1  4.72500016  7.92059409  7.97768475  1
  Mo  Mo35  1  6.30921502  -0.00337435  -0.01557550  1
  Mo  Mo36  1  7.88718386  1.59609517  1.55254762  1
  Mo  Mo37  1  6.31321033  0.02889141  3.15324413  1
  Mo  Mo38  1  8.03562937  1.57446798  4.80210203  1
  Mo  Mo39  1  6.32453196  -0.01701487  6.29552467  1
  Mo  Mo40  1  7.92435449  1.50396913  7.97484199  1
  Mo  Mo41  1  6.31681645  3.14792352  -0.01850634  1
  Mo  Mo42  1  7.92785866  4.79206855  1.63818046  1
  Mo  Mo43  1  6.35059079  3.19827528  3.12568399  1
  Mo  Mo44  1  7.91619704  4.77011278  4.81041324  1
  Mo  Mo45  1  6.33897886  3.11387166  6.28809900  1
  Mo  Mo46  1  7.97440319  4.65357303  7.99617275  1
  Mo  Mo47  1  6.32003431  6.30798306  -0.03085319  1
  Mo  Mo48  1  7.86885456  7.93801530  1.66854496  1
  Mo  Mo49  1  6.28533296  6.35268804  3.20880384  1
  Mo  Mo50  1  7.90817267  8.00642611  4.78537949  1
  Mo  Mo51  1  6.28046435  6.31587261  6.39169568  1
  Mo  Mo52  1  7.92820883  7.87779844  7.93185342  1
