# generated using pymatgen
data_Mo
_symmetry_space_group_name_H-M   'P 1'
_cell_length_a   9.48969964
_cell_length_b   9.48969964
_cell_length_c   9.48969964
_cell_angle_alpha   90.00000000
_cell_angle_beta   90.00000000
_cell_angle_gamma   90.00000000
_symmetry_Int_Tables_number   1
_chemical_formula_structural   Mo
_chemical_formula_sum   Mo53
_cell_volume   854.58919962
_cell_formula_units_Z   53
loop_
 _symmetry_equiv_pos_site_id
 _symmetry_equiv_pos_as_xyz
  1  'x, y, z'
loop_
 _atom_site_type_symbol
 _atom_site_label
 _atom_site_symmetry_multiplicity
 _atom_site_fract_x
 _atom_site_fract_y
 _atom_site_fract_z
 _atom_site_occupancy
  Mo  Mo0  1  1.55798170  1.59378315  1.54285774  1
  Mo  Mo1  1  -0.02045160  -0.00839580  3.11469216  1
  Mo  Mo2  1  1.58508398  1.53400255  4.73079597  1
  Mo  Mo3  1  -0.01186960  -0.01217133  6.41114096  1
  Mo  Mo4  1  1.55609647  1.52872384  7.91534430  1
  Mo  Mo5  1  -0.03753716  3.16639442  0.01931114  1
  Mo  Mo6  1  1.60488731  4.77527854  1.58232191  1
  Mo  Mo7  1  -0.03532549  3.11033731  3.18075643  1
  Mo  Mo8  1  1.59352999  4.69040989  4.71642701  1
  Mo  Mo9  1  0.01455384  3.14234676  6.40258522  1
  Mo  Mo10  1  1.57634022  4.74222293  7.88376423  1
  Mo  Mo11  1  -0.05190557  6.40063655  -0.07663628  1
  Mo  Mo12  1  1.46857826  7.97422603  1.45049900  1
  Mo  Mo13  1  -0.05050830  6.32907732  3.14186418  1
  Mo  Mo14  1  1.53236612  7.89447799  4.76703670  1
  Mo  Mo15  1  0.03797246  6.31087595  6.27852037  1
  Mo  Mo16  1  1.51314857  7.86107168  7.85604790  1
  Mo  Mo17  1  3.12645032  -0.01926335  -0.03083404  1
  Mo  Mo18  1  4.70189651  1.56991927  1.55707012  1
  Mo  Mo19  1  3.10699241  -0.03957205  3.20668869  1
  Mo  Mo20  1  4.77292984  1.53621578  4.72874213  1
  Mo  Mo21  1  3.21770430  -0.03889170  6.33655891  1
  Mo  Mo22  1  4.74589169  1.52755446  7.85485799  1
  Mo  Mo23  1  3.15660679  3.17093352  0.03627671  1
  Mo  Mo24  1  4.81350844  4.72280311  1.57509171  1
  Mo  Mo25  1  3.16972723  3.15865057  3.20761119  1
  Mo  Mo26  1  4.74804589  4.74234580  4.70108216  1
  Mo  Mo27  1  3.18351310  3.19002342  6.25462098  1
  Mo  Mo28  1  4.76510788  4.72563104  7.94088690  1
  Mo  Mo29  1  3.13911237  6.34915354  0.01401644  1
  Mo  Mo30  1  4.73333158  8.00883482  1.60369841  1
  Mo  Mo31  1  3.09301269  6.34505976  3.12971111  1
  Mo  Mo32  1  4.74039885  7.95412997  4.75828077  1
  Mo  Mo33  1  3.21590614  6.33188154  6.28738803  1
  Mo  Mo34  1  4.75357799  7.85686091  7.94406313  1
  Mo  Mo35  1  6.35712769  -0.03489601  0.04419054  1
  Mo  Mo36  1  7.94811758  1.57383698  1.59483954  1
  Mo  Mo37  1  6.26488347  0.05020878  3.16669886  1
  Mo  Mo38  1  7.97550472  1.59383341  4.74366893  1
  Mo  Mo39  1  6.39631266  0.02983291  6.29549163  1
  Mo  Mo40  1  7.98359154  1.50751065  7.95599204  1
  Mo  Mo41  1  6.34123858  3.12808706  -0.02464570  1
  Mo  Mo42  1  7.99198374  4.73009429  1.59844275  1
  Mo  Mo43  1  6.31501916  3.21478046  3.23273837  1
  Mo  Mo44  1  7.98261295  4.78578722  4.82072353  1
  Mo  Mo45  1  6.33165025  3.21987744  6.31114807  1
  Mo  Mo46  1  7.90441874  4.74013841  7.97197702  1
  Mo  Mo47  1  6.33302106  6.23501724  0.03466892  1
  Mo  Mo48  1  7.92155879  7.97320596  1.54759067  1
  Mo  Mo49  1  6.30830771  6.38034451  3.14443565  1
  Mo  Mo50  1  7.91900762  7.93925163  4.77336884  1
  Mo  Mo51  1  6.35882957  6.35128908  6.28515166  1
  Mo  Mo52  1  7.86840263  7.97447457  7.99862113  1
