# generated using pymatgen
data_Mo
_symmetry_space_group_name_H-M   'P 1'
_cell_length_a   9.48969964
_cell_length_b   9.48969964
_cell_length_c   9.48969964
_cell_angle_alpha   90.00000000
_cell_angle_beta   90.00000000
_cell_angle_gamma   90.00000000
_symmetry_Int_Tables_number   1
_chemical_formula_structural   Mo
_chemical_formula_sum   Mo53
_cell_volume   854.58919962
_cell_formula_units_Z   53
loop_
 _symmetry_equiv_pos_site_id
 _symmetry_equiv_pos_as_xyz
  1  'x, y, z'
loop_
 _atom_site_type_symbol
 _atom_site_label
 _atom_site_symmetry_multiplicity
 _atom_site_fract_x
 _atom_site_fract_y
 _atom_site_fract_z
 _atom_site_occupancy
  Mo  Mo0  1  1.55017999  1.58548704  1.55603056  1
  Mo  Mo1  1  -0.02177203  0.00577275  3.19870797  1
  Mo  Mo2  1  1.56162752  1.50538331  4.77517590  1
  Mo  Mo3  1  0.03769134  -0.00445282  6.40265649  1
  Mo  Mo4  1  1.56219914  1.55790335  7.83777377  1
  Mo  Mo5  1  -0.04951038  3.17510190  -0.04284913  1
  Mo  Mo6  1  1.62878984  4.80461066  1.50990885  1
  Mo  Mo7  1  0.01087242  3.11523158  3.23351086  1
  Mo  Mo8  1  1.57346197  4.70172014  4.74807086  1
  Mo  Mo9  1  -0.01491917  3.18691512  6.36410823  1
  Mo  Mo10  1  1.59345080  4.76517440  7.90723716  1
  Mo  Mo11  1  -0.07003060  6.37739772  -0.03515868  1
  Mo  Mo12  1  1.46388953  7.94789649  1.48139916  1
  Mo  Mo13  1  -0.02268074  6.30822642  3.10764570  1
  Mo  Mo14  1  1.52695305  7.93681857  4.70202483  1
  Mo  Mo15  1  0.01278493  6.31049263  6.30340354  1
  Mo  Mo16  1  1.59599255  7.82753302  7.90634194  1
  Mo  Mo17  1  3.08037958  -0.03404533  0.00232187  1
  Mo  Mo18  1  4.71881500  1.54087565  1.52022036  1
  Mo  Mo19  1  3.14263485  0.00275294  3.21896727  1
  Mo  Mo20  1  4.72927856  1.57029287  4.72845541  1
  Mo  Mo21  1  3.21777276  -0.02239941  6.35643587  1
  Mo  Mo22  1  4.73379496  1.52545839  7.85680171  1
  Mo  Mo23  1  3.21902333  3.15442940  0.02478405  1
  Mo  Mo24  1  4.80475424  4.77736039  1.60130761  1
  Mo  Mo25  1  3.17165578  3.17156475  3.19431283  1
  Mo  Mo26  1  4.72649098  4.74073881  4.75074417  1
  Mo  Mo27  1  3.21541443  3.17246163  6.28425837  1
  Mo  Mo28  1  4.75983224  4.71448776  7.95198264  1
  Mo  Mo29  1  3.17897760  6.32863639  0.02677483  1
  Mo  Mo30  1  4.72208518  7.99358081  1.55205519  1
  Mo  Mo31  1  3.17444941  6.30760607  3.15110370  1
  Mo  Mo32  1  4.78575150  7.89561635  4.78622471  1
  Mo  Mo33  1  3.18175297  6.31065714  6.27981422  1
  Mo  Mo34  1  4.76645374  7.87083862  7.96512506  1
  Mo  Mo35  1  6.35324779  -0.01929935  -0.01556080  1
  Mo  Mo36  1  7.98403260  1.59825501  1.61459003  1
  Mo  Mo37  1  6.27014760  -0.00114607  3.18008879  1
  Mo  Mo38  1  7.91411284  1.62124913  4.73754298  1
  Mo  Mo39  1  6.34575296  0.03159158  6.33085663  1
  Mo  Mo40  1  7.96698579  1.56029693  7.96650976  1
  Mo  Mo41  1  6.27283511  3.11925117  0.00648882  1
  Mo  Mo42  1  7.98650737  4.74167018  1.58420956  1
  Mo  Mo43  1  6.31413832  3.18730440  3.23334288  1
  Mo  Mo44  1  7.93582649  4.72984856  4.72829626  1
  Mo  Mo45  1  6.33043700  3.26314316  6.35207409  1
  Mo  Mo46  1  7.85743318  4.77617090  7.93874822  1
  Mo  Mo47  1  6.32282389  6.25415226  0.03572960  1
  Mo  Mo48  1  7.92951648  7.95147091  1.52607776  1
  Mo  Mo49  1  6.33496785  6.34032625  3.12594389  1
  Mo  Mo50  1  7.90855932  7.92639456  4.73109071  1
  Mo  Mo51  1  6.37201736  6.34190181  6.25325181  1
  Mo  Mo52  1  7.85060457  7.96753580  7.98128389  1
