# generated using pymatgen
data_Mo
_symmetry_space_group_name_H-M   'P 1'
_cell_length_a   9.48969964
_cell_length_b   9.48969964
_cell_length_c   9.48969964
_cell_angle_alpha   90.00000000
_cell_angle_beta   90.00000000
_cell_angle_gamma   90.00000000
_symmetry_Int_Tables_number   1
_chemical_formula_structural   Mo
_chemical_formula_sum   Mo53
_cell_volume   854.58919962
_cell_formula_units_Z   53
loop_
 _symmetry_equiv_pos_site_id
 _symmetry_equiv_pos_as_xyz
  1  'x, y, z'
loop_
 _atom_site_type_symbol
 _atom_site_label
 _atom_site_symmetry_multiplicity
 _atom_site_fract_x
 _atom_site_fract_y
 _atom_site_fract_z
 _atom_site_occupancy
  Mo  Mo0  1  1.58110858  1.57960622  1.55618890  1
  Mo  Mo1  1  -0.03457770  -0.00692138  3.22499179  1
  Mo  Mo2  1  1.55319278  1.49288734  4.78969070  1
  Mo  Mo3  1  0.04850424  0.00255130  6.36161830  1
  Mo  Mo4  1  1.59546106  1.58816183  7.81970404  1
  Mo  Mo5  1  0.00893533  3.15554485  -0.03954216  1
  Mo  Mo6  1  1.62742887  4.78624662  1.44557856  1
  Mo  Mo7  1  0.05659545  3.16587007  3.24604056  1
  Mo  Mo8  1  1.55054672  4.74582514  4.74509350  1
  Mo  Mo9  1  -0.03146622  3.24214525  6.31369537  1
  Mo  Mo10  1  1.55028119  4.75224749  7.92539911  1
  Mo  Mo11  1  -0.01014106  6.31929282  -0.00158456  1
  Mo  Mo12  1  1.51143809  7.93621280  1.55618715  1
  Mo  Mo13  1  0.04643476  6.27127584  3.10654906  1
  Mo  Mo14  1  1.53227915  7.89790083  4.65090968  1
  Mo  Mo15  1  -0.02114929  6.32184944  6.30050288  1
  Mo  Mo16  1  1.64764362  7.84367753  7.96585012  1
  Mo  Mo17  1  3.06811142  0.00455718  0.03680514  1
  Mo  Mo18  1  4.75330731  1.54373471  1.49501933  1
  Mo  Mo19  1  3.15784899  0.03119576  3.20683822  1
  Mo  Mo20  1  4.71289555  1.60079261  4.73546130  1
  Mo  Mo21  1  3.21080431  0.00414561  6.35781853  1
  Mo  Mo22  1  4.74858902  1.51143279  7.89413642  1
  Mo  Mo23  1  3.20273579  3.16210886  0.00187246  1
  Mo  Mo24  1  4.75101086  4.79700520  1.61207453  1
  Mo  Mo25  1  3.16188919  3.18511578  3.14908945  1
  Mo  Mo26  1  4.73329014  4.76909290  4.78986545  1
  Mo  Mo27  1  3.20105665  3.15467253  6.36587387  1
  Mo  Mo28  1  4.72444736  4.72349094  7.94001056  1
  Mo  Mo29  1  3.22835992  6.29880412  0.02124839  1
  Mo  Mo30  1  4.70468433  7.93921715  1.54138917  1
  Mo  Mo31  1  3.25045356  6.30578159  3.19919007  1
  Mo  Mo32  1  4.76944429  7.86721623  4.75795111  1
  Mo  Mo33  1  3.16117790  6.29291827  6.31043018  1
  Mo  Mo34  1  4.75434289  7.88703382  7.97796041  1
  Mo  Mo35  1  6.33676055  0.02620539  -0.04854278  1
  Mo  Mo36  1  7.97176219  1.62857690  1.59629036  1
  Mo  Mo37  1  6.29899864  -0.04492702  3.18138213  1
  Mo  Mo38  1  7.87427020  1.60295894  4.79218578  1
  Mo  Mo39  1  6.32282347  0.04460780  6.34363319  1
  Mo  Mo40  1  7.91072973  1.61167304  7.94633036  1
  Mo  Mo41  1  6.24132121  3.10012969  0.05656807  1
  Mo  Mo42  1  7.96147549  4.75995759  1.56616058  1
  Mo  Mo43  1  6.31737769  3.13034295  3.16899894  1
  Mo  Mo44  1  7.89091742  4.72055236  4.66331745  1
  Mo  Mo45  1  6.31176489  3.21921223  6.35773955  1
  Mo  Mo46  1  7.86370235  4.78404278  7.92057707  1
  Mo  Mo47  1  6.30981295  6.32076974  -0.00579253  1
  Mo  Mo48  1  7.92624248  7.95009711  1.55751782  1
  Mo  Mo49  1  6.35474022  6.28950266  3.14893996  1
  Mo  Mo50  1  7.90718667  7.95750080  4.70616522  1
  Mo  Mo51  1  6.33706675  6.32528878  6.29244403  1
  Mo  Mo52  1  7.87432577  7.91906099  7.91441994  1
