# generated using pymatgen
data_Mo
_symmetry_space_group_name_H-M   'P 1'
_cell_length_a   9.48969964
_cell_length_b   9.48969964
_cell_length_c   9.48969964
_cell_angle_alpha   90.00000000
_cell_angle_beta   90.00000000
_cell_angle_gamma   90.00000000
_symmetry_Int_Tables_number   1
_chemical_formula_structural   Mo
_chemical_formula_sum   Mo53
_cell_volume   854.58919962
_cell_formula_units_Z   53
loop_
 _symmetry_equiv_pos_site_id
 _symmetry_equiv_pos_as_xyz
  1  'x, y, z'
loop_
 _atom_site_type_symbol
 _atom_site_label
 _atom_site_symmetry_multiplicity
 _atom_site_fract_x
 _atom_site_fract_y
 _atom_site_fract_z
 _atom_site_occupancy
  Mo  Mo0  1  1.61775369  1.58826730  1.55990772  1
  Mo  Mo1  1  -0.03424634  -0.01157012  3.16499245  1
  Mo  Mo2  1  1.57106705  1.53434498  4.74849716  1
  Mo  Mo3  1  0.00924130  0.01697218  6.35541247  1
  Mo  Mo4  1  1.60250104  1.58647831  7.87571461  1
  Mo  Mo5  1  0.04365915  3.10567716  0.00745335  1
  Mo  Mo6  1  1.61722813  4.73756240  1.47176050  1
  Mo  Mo7  1  0.05066573  3.17963827  3.21351502  1
  Mo  Mo8  1  1.56491885  4.77661164  4.72267670  1
  Mo  Mo9  1  -0.03097310  3.25016425  6.30369646  1
  Mo  Mo10  1  1.48391731  4.72996311  7.89856741  1
  Mo  Mo11  1  0.05979585  6.31511084  -0.00568177  1
  Mo  Mo12  1  1.58638975  7.93217144  1.61172274  1
  Mo  Mo13  1  0.09147013  6.25849976  3.13245175  1
  Mo  Mo14  1  1.55887979  7.82651870  4.68507575  1
  Mo  Mo15  1  -0.02334030  6.35778123  6.27599837  1
  Mo  Mo16  1  1.61267110  7.88340407  7.97298641  1
  Mo  Mo17  1  3.09907577  0.03925012  0.04335630  1
  Mo  Mo18  1  4.76679657  1.57244821  1.52917611  1
  Mo  Mo19  1  3.14800181  0.02386543  3.19001359  1
  Mo  Mo20  1  4.72817079  1.59091948  4.73286722  1
  Mo  Mo21  1  3.19222017  0.00966731  6.33994207  1
  Mo  Mo22  1  4.76394423  1.51845977  7.93001312  1
  Mo  Mo23  1  3.12776067  3.17312708  -0.01332913  1
  Mo  Mo24  1  4.72225732  4.75868368  1.59147839  1
  Mo  Mo25  1  3.15746936  3.18842184  3.14490272  1
  Mo  Mo26  1  4.74552409  4.75228798  4.79147949  1
  Mo  Mo27  1  3.14710501  3.16446537  6.38723206  1
  Mo  Mo28  1  4.70480732  4.74252442  7.93088421  1
  Mo  Mo29  1  3.22267774  6.30938072  0.00945587  1
  Mo  Mo30  1  4.72115225  7.91287039  1.58352076  1
  Mo  Mo31  1  3.25835795  6.32810998  3.22510861  1
  Mo  Mo32  1  4.71647391  7.90951799  4.71890791  1
  Mo  Mo33  1  3.16199729  6.30366592  6.36700610  1
  Mo  Mo34  1  4.71900198  7.90869549  7.96378673  1
  Mo  Mo35  1  6.35619224  0.02228835  -0.02366549  1
  Mo  Mo36  1  7.93646930  1.63776603  1.55045909  1
  Mo  Mo37  1  6.31864168  -0.05183288  3.16245269  1
  Mo  Mo38  1  7.88311653  1.56862493  4.82287097  1
  Mo  Mo39  1  6.33254503  0.03524377  6.31443937  1
  Mo  Mo40  1  7.89733793  1.62729408  7.91480819  1
  Mo  Mo41  1  6.29023273  3.11947315  0.06268980  1
  Mo  Mo42  1  7.93199672  4.77143620  1.53303393  1
  Mo  Mo43  1  6.31186699  3.09492177  3.12111840  1
  Mo  Mo44  1  7.86502923  4.76118493  4.68249775  1
  Mo  Mo45  1  6.28290078  3.14579873  6.32669516  1
  Mo  Mo46  1  7.88243109  4.75934911  7.93690736  1
  Mo  Mo47  1  6.33571013  6.36413394  -0.04480830  1
  Mo  Mo48  1  7.92239103  7.95609989  1.59270811  1
  Mo  Mo49  1  6.36917614  6.26736609  3.18111006  1
  Mo  Mo50  1  7.89954094  7.97396948  4.71000433  1
  Mo  Mo51  1  6.29866555  6.31549393  6.35100638  1
  Mo  Mo52  1  7.91960634  7.87567449  7.86336570  1
