# generated using pymatgen
data_Mo
_symmetry_space_group_name_H-M   'P 1'
_cell_length_a   9.48969964
_cell_length_b   9.48969964
_cell_length_c   9.48969964
_cell_angle_alpha   90.00000000
_cell_angle_beta   90.00000000
_cell_angle_gamma   90.00000000
_symmetry_Int_Tables_number   1
_chemical_formula_structural   Mo
_chemical_formula_sum   Mo53
_cell_volume   854.58919962
_cell_formula_units_Z   53
loop_
 _symmetry_equiv_pos_site_id
 _symmetry_equiv_pos_as_xyz
  1  'x, y, z'
loop_
 _atom_site_type_symbol
 _atom_site_label
 _atom_site_symmetry_multiplicity
 _atom_site_fract_x
 _atom_site_fract_y
 _atom_site_fract_z
 _atom_site_occupancy
  Mo  Mo0  1  1.62856525  1.57884948  1.58816977  1
  Mo  Mo1  1  0.02545207  -0.00360176  3.05959396  1
  Mo  Mo2  1  1.58905009  1.59683357  4.70490298  1
  Mo  Mo3  1  -0.01323797  0.04064424  6.34393773  1
  Mo  Mo4  1  1.53090837  1.51341826  7.95698843  1
  Mo  Mo5  1  -0.05996236  3.10536650  0.03307225  1
  Mo  Mo6  1  1.57012616  4.73004431  1.62100335  1
  Mo  Mo7  1  -0.09706550  3.13417539  3.15102467  1
  Mo  Mo8  1  1.59177643  4.71657464  4.73001898  1
  Mo  Mo9  1  -0.03267473  3.14154720  6.33351090  1
  Mo  Mo10  1  1.51325290  4.73126687  7.87686117  1
  Mo  Mo11  1  0.03466611  6.42165170  -0.01326495  1
  Mo  Mo12  1  1.64373345  7.90668332  1.58749549  1
  Mo  Mo13  1  -0.01063952  6.33453517  3.16937751  1
  Mo  Mo14  1  1.55215785  7.95847810  4.83698132  1
  Mo  Mo15  1  0.03368762  6.34638783  6.29037586  1
  Mo  Mo16  1  1.48082047  7.95549566  7.86448592  1
  Mo  Mo17  1  3.19570092  0.00318647  -0.00020831  1
  Mo  Mo18  1  4.75291736  1.61680774  1.56950761  1
  Mo  Mo19  1  3.14489508  -0.03223927  3.17424209  1
  Mo  Mo20  1  4.76580546  1.52119780  4.73048612  1
  Mo  Mo21  1  3.11718913  0.02581617  6.31506086  1
  Mo  Mo22  1  4.74835986  1.58317954  7.93242255  1
  Mo  Mo23  1  3.12418758  3.19352076  0.01019478  1
  Mo  Mo24  1  4.78012512  4.72082662  1.51721450  1
  Mo  Mo25  1  3.19264930  3.16079613  3.22105702  1
  Mo  Mo26  1  4.74898777  4.69600504  4.72939842  1
  Mo  Mo27  1  3.11074749  3.18636099  6.27152533  1
  Mo  Mo28  1  4.71140208  4.73346484  7.93826887  1
  Mo  Mo29  1  3.15106726  6.39595933  0.02905157  1
  Mo  Mo30  1  4.79238002  7.96175457  1.62330919  1
  Mo  Mo31  1  3.16500607  6.28614546  3.16510193  1
  Mo  Mo32  1  4.71652612  7.94140091  4.78934678  1
  Mo  Mo33  1  3.17978582  6.34260439  6.35468104  1
  Mo  Mo34  1  4.72359468  7.96384613  7.94677500  1
  Mo  Mo35  1  6.42584677  -0.05814404  0.00399788  1
  Mo  Mo36  1  7.89614167  1.54579868  1.54238292  1
  Mo  Mo37  1  6.32283837  0.00341493  3.11696097  1
  Mo  Mo38  1  8.01369923  1.59545506  4.67395295  1
  Mo  Mo39  1  6.32524027  -0.06367314  6.26940070  1
  Mo  Mo40  1  7.97101934  1.52121153  7.91757120  1
  Mo  Mo41  1  6.35083877  3.21537734  -0.07339042  1
  Mo  Mo42  1  7.94033235  4.75393853  1.55544530  1
  Mo  Mo43  1  6.32115708  3.19920190  3.21068768  1
  Mo  Mo44  1  7.92087366  4.77497155  4.81707539  1
  Mo  Mo45  1  6.29029510  3.13819575  6.31015395  1
  Mo  Mo46  1  7.89891566  4.70095431  7.93681740  1
  Mo  Mo47  1  6.38452450  6.30308108  0.01616718  1
  Mo  Mo48  1  7.92546551  7.90222105  1.61389107  1
  Mo  Mo49  1  6.31161713  6.32139308  3.17631327  1
  Mo  Mo50  1  7.90055092  7.92624074  4.75141384  1
  Mo  Mo51  1  6.30274140  6.30858073  6.31732938  1
  Mo  Mo52  1  7.91420212  7.92103960  7.91010146  1
