# generated using pymatgen
data_Mo
_symmetry_space_group_name_H-M   'P 1'
_cell_length_a   9.48969964
_cell_length_b   9.48969964
_cell_length_c   9.48969964
_cell_angle_alpha   90.00000000
_cell_angle_beta   90.00000000
_cell_angle_gamma   90.00000000
_symmetry_Int_Tables_number   1
_chemical_formula_structural   Mo
_chemical_formula_sum   Mo53
_cell_volume   854.58919962
_cell_formula_units_Z   53
loop_
 _symmetry_equiv_pos_site_id
 _symmetry_equiv_pos_as_xyz
  1  'x, y, z'
loop_
 _atom_site_type_symbol
 _atom_site_label
 _atom_site_symmetry_multiplicity
 _atom_site_fract_x
 _atom_site_fract_y
 _atom_site_fract_z
 _atom_site_occupancy
  Mo  Mo0  1  1.61908698  1.57485390  1.56158555  1
  Mo  Mo1  1  0.02277501  -0.01323610  3.08830753  1
  Mo  Mo2  1  1.58713702  1.55243160  4.75091739  1
  Mo  Mo3  1  -0.01394408  0.00535414  6.28857153  1
  Mo  Mo4  1  1.51461492  1.53001299  7.96171340  1
  Mo  Mo5  1  -0.06205104  3.16466695  0.00857975  1
  Mo  Mo6  1  1.54039309  4.74060859  1.58115965  1
  Mo  Mo7  1  -0.09332208  3.18334204  3.13726879  1
  Mo  Mo8  1  1.55195143  4.71095145  4.75864899  1
  Mo  Mo9  1  -0.01392663  3.11690610  6.33460672  1
  Mo  Mo10  1  1.57741535  4.73234194  7.94270191  1
  Mo  Mo11  1  -0.02310389  6.39107763  0.00413943  1
  Mo  Mo12  1  1.60009837  7.89123540  1.56471988  1
  Mo  Mo13  1  -0.07235607  6.36153553  3.19540682  1
  Mo  Mo14  1  1.52273717  8.03888922  4.77847542  1
  Mo  Mo15  1  0.02188189  6.28379282  6.33609267  1
  Mo  Mo16  1  1.50874959  7.98298424  7.87936709  1
  Mo  Mo17  1  3.19133968  0.00310808  -0.01095967  1
  Mo  Mo18  1  4.78708772  1.59905276  1.52373528  1
  Mo  Mo19  1  3.19369296  -0.04137142  3.17594095  1
  Mo  Mo20  1  4.78565912  1.53578767  4.75701865  1
  Mo  Mo21  1  3.14102057  0.05189564  6.34073204  1
  Mo  Mo22  1  4.71999271  1.58230144  7.89972875  1
  Mo  Mo23  1  3.16636826  3.21384251  0.02469152  1
  Mo  Mo24  1  4.78879069  4.76063508  1.54237115  1
  Mo  Mo25  1  3.18179433  3.14689029  3.17304307  1
  Mo  Mo26  1  4.75516636  4.75679434  4.72718671  1
  Mo  Mo27  1  3.16522066  3.16968712  6.29624601  1
  Mo  Mo28  1  4.70268915  4.74789366  7.90754866  1
  Mo  Mo29  1  3.17700009  6.38481211  0.00621849  1
  Mo  Mo30  1  4.77900712  7.96382123  1.58588985  1
  Mo  Mo31  1  3.14280749  6.27595025  3.15954272  1
  Mo  Mo32  1  4.73883338  7.87770461  4.81387287  1
  Mo  Mo33  1  3.17469369  6.32930587  6.28314411  1
  Mo  Mo34  1  4.74954496  7.94347280  7.95832289  1
  Mo  Mo35  1  6.39101059  -0.02682099  -0.02777842  1
  Mo  Mo36  1  7.93059171  1.51561806  1.56879441  1
  Mo  Mo37  1  6.31707823  0.00089350  3.14258081  1
  Mo  Mo38  1  8.00952893  1.58189709  4.65464955  1
  Mo  Mo39  1  6.32207692  -0.04899878  6.28283209  1
  Mo  Mo40  1  7.94371957  1.48757641  7.93330006  1
  Mo  Mo41  1  6.29175812  3.18397782  -0.07234935  1
  Mo  Mo42  1  7.96891785  4.73236318  1.62487842  1
  Mo  Mo43  1  6.32213153  3.24165237  3.20975816  1
  Mo  Mo44  1  7.96712174  4.73987711  4.81136386  1
  Mo  Mo45  1  6.32749562  3.15518359  6.32357118  1
  Mo  Mo46  1  7.94161342  4.72268232  7.92276648  1
  Mo  Mo47  1  6.34522106  6.28067017  0.02448117  1
  Mo  Mo48  1  7.94277630  7.89538851  1.59710590  1
  Mo  Mo49  1  6.25541006  6.34361643  3.17911320  1
  Mo  Mo50  1  7.92009649  7.93025823  4.76378961  1
  Mo  Mo51  1  6.31479808  6.29487779  6.28494257  1
  Mo  Mo52  1  7.87805159  7.93819749  7.95790647  1
