# generated using pymatgen
data_Mo
_symmetry_space_group_name_H-M   'P 1'
_cell_length_a   9.48969964
_cell_length_b   9.48969964
_cell_length_c   9.48969964
_cell_angle_alpha   90.00000000
_cell_angle_beta   90.00000000
_cell_angle_gamma   90.00000000
_symmetry_Int_Tables_number   1
_chemical_formula_structural   Mo
_chemical_formula_sum   Mo53
_cell_volume   854.58919962
_cell_formula_units_Z   53
loop_
 _symmetry_equiv_pos_site_id
 _symmetry_equiv_pos_as_xyz
  1  'x, y, z'
loop_
 _atom_site_type_symbol
 _atom_site_label
 _atom_site_symmetry_multiplicity
 _atom_site_fract_x
 _atom_site_fract_y
 _atom_site_fract_z
 _atom_site_occupancy
  Mo  Mo0  1  1.59792615  1.57455298  1.52244602  1
  Mo  Mo1  1  -0.00379536  -0.00065105  3.11417431  1
  Mo  Mo2  1  1.60435865  1.52439860  4.77632789  1
  Mo  Mo3  1  -0.03254283  -0.02997121  6.29544387  1
  Mo  Mo4  1  1.51925995  1.56242979  7.96656869  1
  Mo  Mo5  1  -0.01717921  3.18387092  -0.01256648  1
  Mo  Mo6  1  1.53564176  4.75404379  1.50342682  1
  Mo  Mo7  1  0.00936437  3.22136689  3.14965654  1
  Mo  Mo8  1  1.53742545  4.73207574  4.77009167  1
  Mo  Mo9  1  0.02705053  3.12711732  6.34274752  1
  Mo  Mo10  1  1.61379743  4.73661582  7.97972242  1
  Mo  Mo11  1  -0.03479949  6.32005075  0.01769049  1
  Mo  Mo12  1  1.53554692  7.90374557  1.53865271  1
  Mo  Mo13  1  -0.07444737  6.35727315  3.20047130  1
  Mo  Mo14  1  1.51856597  7.98952607  4.67764305  1
  Mo  Mo15  1  -0.00510307  6.26365753  6.37462375  1
  Mo  Mo16  1  1.57578780  7.97603403  7.94271993  1
  Mo  Mo17  1  3.14178538  0.02725909  0.00418953  1
  Mo  Mo18  1  4.81952852  1.54731723  1.51097234  1
  Mo  Mo19  1  3.24516788  -0.01920952  3.17862150  1
  Mo  Mo20  1  4.79652205  1.58646424  4.76396973  1
  Mo  Mo21  1  3.20613855  0.03518439  6.37347554  1
  Mo  Mo22  1  4.70876561  1.57152718  7.86907633  1
  Mo  Mo23  1  3.17886095  3.22032687  0.00993309  1
  Mo  Mo24  1  4.75116895  4.78797751  1.59596953  1
  Mo  Mo25  1  3.15491972  3.14379094  3.11657745  1
  Mo  Mo26  1  4.73966680  4.79183140  4.74166942  1
  Mo  Mo27  1  3.21489665  3.16070995  6.35160776  1
  Mo  Mo28  1  4.72830720  4.78051258  7.86608652  1
  Mo  Mo29  1  3.21302994  6.33381232  -0.03471310  1
  Mo  Mo30  1  4.74266523  7.92805878  1.55764438  1
  Mo  Mo31  1  3.12082512  6.30145479  3.16860655  1
  Mo  Mo32  1  4.73835059  7.87047599  4.77738234  1
  Mo  Mo33  1  3.13581460  6.31125512  6.25907079  1
  Mo  Mo34  1  4.74865237  7.91256036  7.94658157  1
  Mo  Mo35  1  6.31485452  0.02731438  -0.02973154  1
  Mo  Mo36  1  7.99007784  1.52857764  1.57095696  1
  Mo  Mo37  1  6.30135026  -0.01685686  3.16614738  1
  Mo  Mo38  1  7.94889022  1.53942579  4.72688685  1
  Mo  Mo39  1  6.32174114  0.00498835  6.30613157  1
  Mo  Mo40  1  7.90727240  1.52184689  7.93389432  1
  Mo  Mo41  1  6.25119619  3.13834462  -0.01272723  1
  Mo  Mo42  1  7.95399718  4.74249722  1.66475326  1
  Mo  Mo43  1  6.30760201  3.20905137  3.14578454  1
  Mo  Mo44  1  7.96506659  4.71935237  4.76998547  1
  Mo  Mo45  1  6.34805029  3.15985526  6.31841905  1
  Mo  Mo46  1  7.97397364  4.74650758  7.95041065  1
  Mo  Mo47  1  6.29926864  6.28770296  -0.00628229  1
  Mo  Mo48  1  7.95987574  7.93950698  1.56965290  1
  Mo  Mo49  1  6.24645412  6.33893486  3.18511642  1
  Mo  Mo50  1  7.93291854  7.94429388  4.76540055  1
  Mo  Mo51  1  6.32595811  6.29020302  6.31324620  1
  Mo  Mo52  1  7.87777254  7.90925054  7.96363588  1
