# generated using pymatgen
data_Mo
_symmetry_space_group_name_H-M   'P 1'
_cell_length_a   9.46603805
_cell_length_b   9.46603785
_cell_length_c   9.46603779
_cell_angle_alpha   90.00000282
_cell_angle_beta   89.99999931
_cell_angle_gamma   89.99999840
_symmetry_Int_Tables_number   1
_chemical_formula_structural   Mo
_chemical_formula_sum   Mo53
_cell_volume   848.21259331
_cell_formula_units_Z   53
loop_
 _symmetry_equiv_pos_site_id
 _symmetry_equiv_pos_as_xyz
  1  'x, y, z'
loop_
 _atom_site_type_symbol
 _atom_site_label
 _atom_site_symmetry_multiplicity
 _atom_site_fract_x
 _atom_site_fract_y
 _atom_site_fract_z
 _atom_site_occupancy
  Mo  Mo0  1  1.51482738  1.61355284  1.76033917  1
  Mo  Mo1  1  0.05406339  -0.04834875  3.15567992  1
  Mo  Mo2  1  1.49632682  1.53069499  4.80100164  1
  Mo  Mo3  1  -0.05148399  0.01269265  6.24870163  1
  Mo  Mo4  1  1.58489533  1.63687827  7.86803131  1
  Mo  Mo5  1  0.01989505  3.13049567  -0.09943863  1
  Mo  Mo6  1  1.47968952  4.68849386  1.56743626  1
  Mo  Mo7  1  -0.03743561  3.04188598  3.21834399  1
  Mo  Mo8  1  1.47100472  4.70281093  4.66587539  1
  Mo  Mo9  1  -0.02702346  3.07758520  6.21950779  1
  Mo  Mo10  1  1.47150169  4.73347905  7.84551333  1
  Mo  Mo11  1  0.11067220  6.43754228  0.09056224  1
  Mo  Mo12  1  1.61910591  7.89418408  1.67908290  1
  Mo  Mo13  1  0.10684011  6.24950182  3.16202060  1
  Mo  Mo14  1  1.62800758  7.88728905  4.76018303  1
  Mo  Mo15  1  0.10132501  6.28350141  6.38281540  1
  Mo  Mo16  1  1.46966496  7.96129313  7.88076252  1
  Mo  Mo17  1  3.20071999  0.02937909  -0.02401695  1
  Mo  Mo18  1  4.64424200  1.55533055  1.52433547  1
  Mo  Mo19  1  3.21247413  -0.12856058  3.16170798  1
  Mo  Mo20  1  4.57397004  1.64775525  4.70802093  1
  Mo  Mo21  1  3.15666114  -0.09697925  6.30681536  1
  Mo  Mo22  1  4.78938251  1.49104902  8.00602584  1
  Mo  Mo23  1  3.09590369  3.05897403  -0.01595815  1
  Mo  Mo24  1  4.69694313  4.73496166  1.57469312  1
  Mo  Mo25  1  3.19846128  3.22174558  3.15205985  1
  Mo  Mo26  1  4.73645306  4.79277524  4.62737027  1
  Mo  Mo27  1  3.18470432  3.18349747  6.35357948  1
  Mo  Mo28  1  4.66984077  4.75572000  7.92734994  1
  Mo  Mo29  1  3.18049630  6.27238031  0.03330359  1
  Mo  Mo30  1  4.70943274  7.96528573  1.51480946  1
  Mo  Mo31  1  3.11885178  6.17580972  3.14437941  1
  Mo  Mo32  1  4.74146069  7.84015258  4.48153362  1
  Mo  Mo33  1  3.25805789  6.31147230  6.29646788  1
  Mo  Mo34  1  4.64874617  7.89686709  7.76399328  1
  Mo  Mo35  1  6.30775763  0.00828731  0.18519096  1
  Mo  Mo36  1  7.85125980  1.62099838  1.48119054  1
  Mo  Mo37  1  6.43979202  0.21924898  3.23582626  1
  Mo  Mo38  1  7.87144064  1.52310001  4.67329782  1
  Mo  Mo39  1  6.32708259  0.06769083  6.20911507  1
  Mo  Mo40  1  7.95693225  1.44939245  7.89919432  1
  Mo  Mo41  1  6.26810478  3.23511573  0.12657066  1
  Mo  Mo42  1  8.07049346  4.83821855  1.58755430  1
  Mo  Mo43  1  6.24146007  3.29080386  3.22168164  1
  Mo  Mo44  1  7.76282186  4.63022758  4.75456337  1
  Mo  Mo45  1  6.10646272  3.17944144  6.33278617  1
  Mo  Mo46  1  7.94885612  4.70482527  7.82895907  1
  Mo  Mo47  1  6.38623576  6.49295609  0.06170371  1
  Mo  Mo48  1  7.95755396  7.83708250  1.66490824  1
  Mo  Mo49  1  6.42115640  6.46563754  3.10462208  1
  Mo  Mo50  1  8.10634876  7.68350234  4.67703009  1
  Mo  Mo51  1  6.23176471  6.30391955  6.30127405  1
  Mo  Mo52  1  7.90166252  7.89425667  7.89749294  1
