# generated using pymatgen
data_Mo
_symmetry_space_group_name_H-M   'P 1'
_cell_length_a   9.46603805
_cell_length_b   9.46603785
_cell_length_c   9.46603779
_cell_angle_alpha   90.00000282
_cell_angle_beta   89.99999931
_cell_angle_gamma   89.99999840
_symmetry_Int_Tables_number   1
_chemical_formula_structural   Mo
_chemical_formula_sum   Mo53
_cell_volume   848.21259331
_cell_formula_units_Z   53
loop_
 _symmetry_equiv_pos_site_id
 _symmetry_equiv_pos_as_xyz
  1  'x, y, z'
loop_
 _atom_site_type_symbol
 _atom_site_label
 _atom_site_symmetry_multiplicity
 _atom_site_fract_x
 _atom_site_fract_y
 _atom_site_fract_z
 _atom_site_occupancy
  Mo  Mo0  1  1.48060506  1.56988463  1.57099488  1
  Mo  Mo1  1  0.05330242  -0.00518435  3.15876301  1
  Mo  Mo2  1  1.50995501  1.57820717  4.71814026  1
  Mo  Mo3  1  0.06773201  -0.06692141  6.40552809  1
  Mo  Mo4  1  1.53884894  1.49761090  7.81477523  1
  Mo  Mo5  1  -0.02171401  3.06183363  -0.03560270  1
  Mo  Mo6  1  1.53468126  4.67850610  1.53965892  1
  Mo  Mo7  1  -0.05074707  3.21136822  3.07692006  1
  Mo  Mo8  1  1.59499282  4.64623603  4.85143268  1
  Mo  Mo9  1  -0.10496132  3.13321040  6.35568626  1
  Mo  Mo10  1  1.57350963  4.77036970  7.95525498  1
  Mo  Mo11  1  -0.01609964  6.39266646  -0.04172897  1
  Mo  Mo12  1  1.57418504  7.89523012  1.51022937  1
  Mo  Mo13  1  0.08119612  6.25163435  3.23877709  1
  Mo  Mo14  1  1.59853161  7.81049064  4.73583875  1
  Mo  Mo15  1  -0.05486705  6.27200628  6.31393493  1
  Mo  Mo16  1  1.57177817  7.92796387  7.91576867  1
  Mo  Mo17  1  3.08415231  -0.07640012  -0.00653832  1
  Mo  Mo18  1  4.73865585  1.68224848  1.70281871  1
  Mo  Mo19  1  3.19910981  0.11552569  3.15016777  1
  Mo  Mo20  1  4.76558609  1.56966124  4.78254373  1
  Mo  Mo21  1  3.22891699  0.03931574  6.22756289  1
  Mo  Mo22  1  4.74255918  1.58054525  7.91394231  1
  Mo  Mo23  1  3.24180288  3.12968789  0.02545103  1
  Mo  Mo24  1  4.76594939  4.82576514  1.50016565  1
  Mo  Mo25  1  3.04895503  3.09753108  3.21553918  1
  Mo  Mo26  1  4.64656178  4.74559406  4.75933103  1
  Mo  Mo27  1  3.12264093  3.15101925  6.33692912  1
  Mo  Mo28  1  4.74212773  4.73621505  7.94097394  1
  Mo  Mo29  1  3.14356522  6.31891719  -0.04076377  1
  Mo  Mo30  1  4.73210069  7.87075410  1.45949506  1
  Mo  Mo31  1  3.28126578  6.38277533  3.11871307  1
  Mo  Mo32  1  4.84286364  7.92737624  4.74641306  1
  Mo  Mo33  1  3.12513878  6.28512174  6.31615638  1
  Mo  Mo34  1  4.78316662  7.89498898  7.84533439  1
  Mo  Mo35  1  6.35975069  0.06990376  -0.06408467  1
  Mo  Mo36  1  7.89103135  1.63763926  1.59980969  1
  Mo  Mo37  1  6.25191409  0.01445175  3.05591196  1
  Mo  Mo38  1  7.85128297  1.53114343  4.84138791  1
  Mo  Mo39  1  6.20750943  -0.01624056  6.32287309  1
  Mo  Mo40  1  7.84701103  1.43756421  7.94280459  1
  Mo  Mo41  1  6.34295991  3.23773377  -0.02849032  1
  Mo  Mo42  1  7.87933376  4.67388738  1.42419803  1
  Mo  Mo43  1  6.23174222  3.19516617  3.12995842  1
  Mo  Mo44  1  7.97782971  4.69494916  4.73288261  1
  Mo  Mo45  1  6.23781347  3.16845308  6.39090658  1
  Mo  Mo46  1  7.89104110  4.71655260  7.92867496  1
  Mo  Mo47  1  6.30026849  6.38024415  -0.02405207  1
  Mo  Mo48  1  8.00423180  7.97498947  1.61236232  1
  Mo  Mo49  1  6.33277170  6.24621065  3.13428984  1
  Mo  Mo50  1  7.93704312  7.88588623  4.77503511  1
  Mo  Mo51  1  6.33307666  6.33789576  6.31270964  1
  Mo  Mo52  1  7.94320507  7.89766801  7.82006575  1
