# generated using pymatgen
data_Mo
_symmetry_space_group_name_H-M   'P 1'
_cell_length_a   9.46603805
_cell_length_b   9.46603785
_cell_length_c   9.46603779
_cell_angle_alpha   90.00000282
_cell_angle_beta   89.99999931
_cell_angle_gamma   89.99999840
_symmetry_Int_Tables_number   1
_chemical_formula_structural   Mo
_chemical_formula_sum   Mo53
_cell_volume   848.21259331
_cell_formula_units_Z   53
loop_
 _symmetry_equiv_pos_site_id
 _symmetry_equiv_pos_as_xyz
  1  'x, y, z'
loop_
 _atom_site_type_symbol
 _atom_site_label
 _atom_site_symmetry_multiplicity
 _atom_site_fract_x
 _atom_site_fract_y
 _atom_site_fract_z
 _atom_site_occupancy
  Mo  Mo0  1  1.51960906  1.50048324  1.38931045  1
  Mo  Mo1  1  -0.04542040  0.04414121  3.16219381  1
  Mo  Mo2  1  1.49588246  1.58727172  4.73414373  1
  Mo  Mo3  1  0.03400447  -0.01712282  6.34979338  1
  Mo  Mo4  1  1.56660949  1.48958650  7.92042722  1
  Mo  Mo5  1  0.01804298  3.05822230  -0.02443664  1
  Mo  Mo6  1  1.61823582  4.77008352  1.56373405  1
  Mo  Mo7  1  -0.04312594  3.24008696  3.07804597  1
  Mo  Mo8  1  1.60633502  4.69775183  4.84439099  1
  Mo  Mo9  1  -0.04835492  3.14344044  6.40159884  1
  Mo  Mo10  1  1.61141487  4.69988802  7.99587489  1
  Mo  Mo11  1  -0.12682360  6.29176028  -0.04232721  1
  Mo  Mo12  1  1.51321878  7.89419224  1.47397465  1
  Mo  Mo13  1  -0.00186343  6.30968109  3.14667928  1
  Mo  Mo14  1  1.61100568  7.88964576  4.71719328  1
  Mo  Mo15  1  -0.07513165  6.29037990  6.30426148  1
  Mo  Mo16  1  1.67806885  7.82308671  7.89966100  1
  Mo  Mo17  1  3.12439255  0.01717030  -0.00000086  1
  Mo  Mo18  1  4.77691292  1.60616873  1.60656264  1
  Mo  Mo19  1  3.14918062  0.11001975  3.11386330  1
  Mo  Mo20  1  4.87125188  1.58964560  4.81006630  1
  Mo  Mo21  1  3.17981996  0.04673500  6.23179044  1
  Mo  Mo22  1  4.69522213  1.63336314  7.93901875  1
  Mo  Mo23  1  3.23766487  3.17071109  0.01996746  1
  Mo  Mo24  1  4.75045481  4.75561385  1.59778422  1
  Mo  Mo25  1  3.07681312  3.19218938  3.18065236  1
  Mo  Mo26  1  4.74191923  4.67841767  4.85075668  1
  Mo  Mo27  1  3.10180229  3.10475289  6.34848096  1
  Mo  Mo28  1  4.77662430  4.75050793  7.84963316  1
  Mo  Mo29  1  3.10384087  6.35007524  -0.05046085  1
  Mo  Mo30  1  4.78893531  7.93086071  1.50984880  1
  Mo  Mo31  1  3.24616573  6.45185566  3.13710036  1
  Mo  Mo32  1  4.79616993  7.90952473  4.85180189  1
  Mo  Mo33  1  3.09887322  6.31483460  6.32643585  1
  Mo  Mo34  1  4.80774215  7.88446536  7.94578077  1
  Mo  Mo35  1  6.26977208  0.02821366  -0.09407377  1
  Mo  Mo36  1  7.91131246  1.51751069  1.66446147  1
  Mo  Mo37  1  6.22250855  -0.12609648  3.05165949  1
  Mo  Mo38  1  7.87484161  1.54127631  4.84526092  1
  Mo  Mo39  1  6.27809529  -0.04084527  6.37681923  1
  Mo  Mo40  1  7.88035001  1.55834920  7.93430658  1
  Mo  Mo41  1  6.30115063  3.08834423  -0.12307672  1
  Mo  Mo42  1  7.83801835  4.72470115  1.50205805  1
  Mo  Mo43  1  6.28931170  3.14314949  3.16442869  1
  Mo  Mo44  1  7.95637733  4.74765769  4.71455834  1
  Mo  Mo45  1  6.38517924  3.17987389  6.29917431  1
  Mo  Mo46  1  7.89662931  4.77092189  7.93480731  1
  Mo  Mo47  1  6.27691351  6.27517245  -0.09433035  1
  Mo  Mo48  1  7.93548098  7.94969997  1.52092177  1
  Mo  Mo49  1  6.29285836  6.20603464  3.16544153  1
  Mo  Mo50  1  7.84006406  8.00986674  4.75726467  1
  Mo  Mo51  1  6.32161959  6.28583227  6.28735963  1
  Mo  Mo52  1  7.95988775  7.91670027  7.89520764  1
