# generated using pymatgen
data_Mo
_symmetry_space_group_name_H-M   'P 1'
_cell_length_a   9.46603805
_cell_length_b   9.46603785
_cell_length_c   9.46603779
_cell_angle_alpha   90.00000282
_cell_angle_beta   89.99999931
_cell_angle_gamma   89.99999840
_symmetry_Int_Tables_number   1
_chemical_formula_structural   Mo
_chemical_formula_sum   Mo53
_cell_volume   848.21259331
_cell_formula_units_Z   53
loop_
 _symmetry_equiv_pos_site_id
 _symmetry_equiv_pos_as_xyz
  1  'x, y, z'
loop_
 _atom_site_type_symbol
 _atom_site_label
 _atom_site_symmetry_multiplicity
 _atom_site_fract_x
 _atom_site_fract_y
 _atom_site_fract_z
 _atom_site_occupancy
  Mo  Mo0  1  1.56895405  1.45877028  1.39318770  1
  Mo  Mo1  1  -0.10523170  0.05146192  3.12779275  1
  Mo  Mo2  1  1.51759207  1.57315821  4.73930021  1
  Mo  Mo3  1  -0.03222483  0.04917720  6.26183318  1
  Mo  Mo4  1  1.60989470  1.52238974  8.03376834  1
  Mo  Mo5  1  0.01924889  3.12824930  0.00929510  1
  Mo  Mo6  1  1.65312837  4.82984834  1.60112864  1
  Mo  Mo7  1  -0.00103306  3.20438525  3.13451559  1
  Mo  Mo8  1  1.56227317  4.79404717  4.75349764  1
  Mo  Mo9  1  0.06545741  3.16552152  6.35597845  1
  Mo  Mo10  1  1.60015347  4.61793110  7.99104623  1
  Mo  Mo11  1  -0.10983394  6.22032297  0.01649577  1
  Mo  Mo12  1  1.46776958  7.92699488  1.50387710  1
  Mo  Mo13  1  -0.07254364  6.39151539  3.06085264  1
  Mo  Mo14  1  1.59767417  7.99945788  4.68638207  1
  Mo  Mo15  1  -0.00194768  6.33380269  6.27614333  1
  Mo  Mo16  1  1.68615065  7.76768684  7.86520745  1
  Mo  Mo17  1  3.18798177  0.08867355  -0.04040949  1
  Mo  Mo18  1  4.76975869  1.50519425  1.50332375  1
  Mo  Mo19  1  3.08148774  0.03601005  3.10426593  1
  Mo  Mo20  1  4.82523375  1.58943340  4.79397629  1
  Mo  Mo21  1  3.10917395  0.00865772  6.27956206  1
  Mo  Mo22  1  4.71012317  1.61310421  7.93039120  1
  Mo  Mo23  1  3.14811757  3.22395485  0.00079020  1
  Mo  Mo24  1  4.73023047  4.67785654  1.67231544  1
  Mo  Mo25  1  3.16006624  3.28408021  3.12692399  1
  Mo  Mo26  1  4.82648732  4.66250156  4.84087046  1
  Mo  Mo27  1  3.11690818  3.09967848  6.31348323  1
  Mo  Mo28  1  4.75743094  4.74964775  7.82814475  1
  Mo  Mo29  1  3.11849807  6.33115828  0.01473160  1
  Mo  Mo30  1  4.79669813  7.95505973  1.59134285  1
  Mo  Mo31  1  3.11168743  6.39805853  3.18507383  1
  Mo  Mo32  1  4.69475425  7.86654720  4.83985864  1
  Mo  Mo33  1  3.13601563  6.32533561  6.29523728  1
  Mo  Mo34  1  4.76098509  7.89508068  7.99145860  1
  Mo  Mo35  1  6.24250190  -0.05540241  -0.01326119  1
  Mo  Mo36  1  7.90442139  1.43861738  1.65497150  1
  Mo  Mo37  1  6.26426222  -0.12325380  3.16920231  1
  Mo  Mo38  1  7.93959694  1.57616732  4.77299836  1
  Mo  Mo39  1  6.38781574  -0.01158767  6.37599412  1
  Mo  Mo40  1  7.97651838  1.66043849  7.91607261  1
  Mo  Mo41  1  6.26396750  3.00873527  -0.09507526  1
  Mo  Mo42  1  7.87328841  4.78222861  1.64064786  1
  Mo  Mo43  1  6.36227982  3.07765068  3.18350212  1
  Mo  Mo44  1  7.88883701  4.80038690  4.72091674  1
  Mo  Mo45  1  6.45031496  3.16160281  6.22164466  1
  Mo  Mo46  1  7.92886687  4.76921495  7.88979438  1
  Mo  Mo47  1  6.26024555  6.19527211  -0.08641293  1
  Mo  Mo48  1  7.84726165  7.88610359  1.43917918  1
  Mo  Mo49  1  6.25952193  6.25673798  3.16375808  1
  Mo  Mo50  1  7.84174288  8.01353051  4.71504265  1
  Mo  Mo51  1  6.29872353  6.26010089  6.25113085  1
  Mo  Mo52  1  7.92857748  7.94455650  7.98410138  1
