# generated using pymatgen
data_Mo
_symmetry_space_group_name_H-M   'P 1'
_cell_length_a   9.46603805
_cell_length_b   9.46603785
_cell_length_c   9.46603779
_cell_angle_alpha   90.00000282
_cell_angle_beta   89.99999931
_cell_angle_gamma   89.99999840
_symmetry_Int_Tables_number   1
_chemical_formula_structural   Mo
_chemical_formula_sum   Mo53
_cell_volume   848.21259331
_cell_formula_units_Z   53
loop_
 _symmetry_equiv_pos_site_id
 _symmetry_equiv_pos_as_xyz
  1  'x, y, z'
loop_
 _atom_site_type_symbol
 _atom_site_label
 _atom_site_symmetry_multiplicity
 _atom_site_fract_x
 _atom_site_fract_y
 _atom_site_fract_z
 _atom_site_occupancy
  Mo  Mo0  1  1.58003847  1.49631477  1.57920749  1
  Mo  Mo1  1  -0.06644565  -0.00350387  3.06466305  1
  Mo  Mo2  1  1.61075202  1.57526598  4.69875076  1
  Mo  Mo3  1  -0.03506522  0.07529714  6.26374007  1
  Mo  Mo4  1  1.60000197  1.57617435  8.04297966  1
  Mo  Mo5  1  -0.03573573  3.19775928  0.08711723  1
  Mo  Mo6  1  1.58242664  4.79464740  1.65327133  1
  Mo  Mo7  1  0.05731726  3.16960872  3.20213337  1
  Mo  Mo8  1  1.53265646  4.85334292  4.66398394  1
  Mo  Mo9  1  0.13553167  3.20899463  6.25000522  1
  Mo  Mo10  1  1.57531947  4.65036304  7.92226135  1
  Mo  Mo11  1  0.00633689  6.23330618  0.02784511  1
  Mo  Mo12  1  1.47880855  8.00600933  1.54189063  1
  Mo  Mo13  1  -0.07697046  6.44081437  3.07664116  1
  Mo  Mo14  1  1.50617455  8.03543201  4.67293185  1
  Mo  Mo15  1  0.06981420  6.36960402  6.24896309  1
  Mo  Mo16  1  1.59896343  7.79446138  7.85712525  1
  Mo  Mo17  1  3.19608784  0.00459296  -0.06348521  1
  Mo  Mo18  1  4.72732277  1.46179788  1.51548956  1
  Mo  Mo19  1  3.05662550  -0.02824436  3.13257901  1
  Mo  Mo20  1  4.68214263  1.51841589  4.74651099  1
  Mo  Mo21  1  3.09455926  -0.02709681  6.33875799  1
  Mo  Mo22  1  4.78747180  1.56563807  7.85010041  1
  Mo  Mo23  1  3.08034833  3.23821683  -0.01834841  1
  Mo  Mo24  1  4.75455044  4.66582214  1.64179818  1
  Mo  Mo25  1  3.21951522  3.24615804  3.12406230  1
  Mo  Mo26  1  4.79969393  4.70492877  4.72426157  1
  Mo  Mo27  1  3.17068974  3.14575679  6.23209711  1
  Mo  Mo28  1  4.70776832  4.71374262  7.88820090  1
  Mo  Mo29  1  3.18033829  6.29441125  0.07501420  1
  Mo  Mo30  1  4.71364450  7.88100311  1.68022417  1
  Mo  Mo31  1  3.01489406  6.29738255  3.21206460  1
  Mo  Mo32  1  4.63299494  7.87040371  4.75877567  1
  Mo  Mo33  1  3.17066763  6.28198880  6.27706231  1
  Mo  Mo34  1  4.71289493  7.90397631  7.94303968  1
  Mo  Mo35  1  6.34613705  -0.08747284  0.05323732  1
  Mo  Mo36  1  7.87079717  1.47130759  1.55552164  1
  Mo  Mo37  1  6.29539356  0.00253650  3.31087515  1
  Mo  Mo38  1  7.99755751  1.63216822  4.67016548  1
  Mo  Mo39  1  6.41300994  0.02161966  6.34952359  1
  Mo  Mo40  1  8.05234929  1.67476065  7.91231075  1
  Mo  Mo41  1  6.28527459  3.07610325  0.00827597  1
  Mo  Mo42  1  7.90346470  4.75103382  1.69237714  1
  Mo  Mo43  1  6.39229396  3.02523074  3.13723357  1
  Mo  Mo44  1  7.91444074  4.84119714  4.73163532  1
  Mo  Mo45  1  6.40256772  3.12701594  6.25617764  1
  Mo  Mo46  1  7.95132779  4.72935564  7.85784103  1
  Mo  Mo47  1  6.25075851  6.16024624  -0.01684800  1
  Mo  Mo48  1  7.77800704  7.84864715  1.44405299  1
  Mo  Mo49  1  6.22947576  6.33894523  3.14837834  1
  Mo  Mo50  1  7.88478421  7.90328390  4.70367329  1
  Mo  Mo51  1  6.30376874  6.31524432  6.27497104  1
  Mo  Mo52  1  7.89232139  7.94184397  7.98473240  1
