# generated using pymatgen
data_Mo
_symmetry_space_group_name_H-M   'P 1'
_cell_length_a   9.46603805
_cell_length_b   9.46603785
_cell_length_c   9.46603779
_cell_angle_alpha   90.00000282
_cell_angle_beta   89.99999931
_cell_angle_gamma   89.99999840
_symmetry_Int_Tables_number   1
_chemical_formula_structural   Mo
_chemical_formula_sum   Mo53
_cell_volume   848.21259331
_cell_formula_units_Z   53
loop_
 _symmetry_equiv_pos_site_id
 _symmetry_equiv_pos_as_xyz
  1  'x, y, z'
loop_
 _atom_site_type_symbol
 _atom_site_label
 _atom_site_symmetry_multiplicity
 _atom_site_fract_x
 _atom_site_fract_y
 _atom_site_fract_z
 _atom_site_occupancy
  Mo  Mo0  1  1.53468313  1.62672602  1.69725128  1
  Mo  Mo1  1  -0.00858696  0.03445161  3.08348344  1
  Mo  Mo2  1  1.61335604  1.56539532  4.74960057  1
  Mo  Mo3  1  0.07034545  0.03063553  6.41437350  1
  Mo  Mo4  1  1.51429078  1.66172857  7.79956727  1
  Mo  Mo5  1  0.00949035  3.13746361  0.04436959  1
  Mo  Mo6  1  1.42425398  4.68955011  1.59625126  1
  Mo  Mo7  1  0.03092057  3.16976528  3.16060826  1
  Mo  Mo8  1  1.62825668  4.72492987  4.73687477  1
  Mo  Mo9  1  0.00600856  3.21632848  6.26670272  1
  Mo  Mo10  1  1.53307453  4.87420275  7.84525200  1
  Mo  Mo11  1  0.06511828  6.43021962  -0.06400731  1
  Mo  Mo12  1  1.53070347  7.89354922  1.53641107  1
  Mo  Mo13  1  0.02693439  6.28787382  3.16578537  1
  Mo  Mo14  1  1.41123452  7.86275724  4.77085243  1
  Mo  Mo15  1  -0.02777350  6.34046000  6.34393896  1
  Mo  Mo16  1  1.47228173  8.00183981  7.94206285  1
  Mo  Mo17  1  3.14309136  -0.09434125  0.03330565  1
  Mo  Mo18  1  4.68735906  1.52695141  1.56905377  1
  Mo  Mo19  1  3.21649824  -0.05126352  3.18761731  1
  Mo  Mo20  1  4.71350021  1.53056941  4.71196982  1
  Mo  Mo21  1  3.19065257  -0.02502709  6.36851004  1
  Mo  Mo22  1  4.78793547  1.51517106  7.85169680  1
  Mo  Mo23  1  3.16870425  3.04544323  0.00782948  1
  Mo  Mo24  1  4.70992415  4.71127936  1.49628695  1
  Mo  Mo25  1  3.22820390  3.02285713  3.15185270  1
  Mo  Mo26  1  4.69873385  4.75943147  4.59589053  1
  Mo  Mo27  1  3.25824969  3.21013721  6.27740626  1
  Mo  Mo28  1  4.72887009  4.67455855  7.88960591  1
  Mo  Mo29  1  3.22222349  6.24996972  -0.01714655  1
  Mo  Mo30  1  4.58449233  7.84186911  1.55385424  1
  Mo  Mo31  1  3.20513110  6.29212679  3.10109448  1
  Mo  Mo32  1  4.66593442  7.90506850  4.75186249  1
  Mo  Mo33  1  3.19170249  6.27926881  6.34445921  1
  Mo  Mo34  1  4.74527039  7.87046510  7.86078185  1
  Mo  Mo35  1  6.37405237  0.03144555  -0.02851605  1
  Mo  Mo36  1  7.90551484  1.59577168  1.44782482  1
  Mo  Mo37  1  6.28952923  0.04883800  3.20965722  1
  Mo  Mo38  1  7.97130602  1.57599294  4.73017160  1
  Mo  Mo39  1  6.27311860  -0.01280722  6.32585947  1
  Mo  Mo40  1  7.99744798  1.55982924  7.90642670  1
  Mo  Mo41  1  6.29180385  3.22009551  0.04532869  1
  Mo  Mo42  1  7.88266179  4.67413118  1.49660926  1
  Mo  Mo43  1  6.29165630  3.20133393  3.16339297  1
  Mo  Mo44  1  7.94588025  4.72393734  4.71049172  1
  Mo  Mo45  1  6.24195175  3.19343311  6.34548534  1
  Mo  Mo46  1  7.92387263  4.71387019  7.88170793  1
  Mo  Mo47  1  6.36632931  6.33461664  0.06960424  1
  Mo  Mo48  1  7.83063807  7.88164415  1.65027137  1
  Mo  Mo49  1  6.32446147  6.31090178  3.21239804  1
  Mo  Mo50  1  7.84359150  7.91117604  4.76574009  1
  Mo  Mo51  1  6.31007020  6.33526671  6.40419665  1
  Mo  Mo52  1  7.94090904  7.87396465  7.82389117  1
