# generated using pymatgen
data_Mo
_symmetry_space_group_name_H-M   'P 1'
_cell_length_a   9.46603805
_cell_length_b   9.46603785
_cell_length_c   9.46603779
_cell_angle_alpha   90.00000282
_cell_angle_beta   89.99999931
_cell_angle_gamma   89.99999840
_symmetry_Int_Tables_number   1
_chemical_formula_structural   Mo
_chemical_formula_sum   Mo53
_cell_volume   848.21259331
_cell_formula_units_Z   53
loop_
 _symmetry_equiv_pos_site_id
 _symmetry_equiv_pos_as_xyz
  1  'x, y, z'
loop_
 _atom_site_type_symbol
 _atom_site_label
 _atom_site_symmetry_multiplicity
 _atom_site_fract_x
 _atom_site_fract_y
 _atom_site_fract_z
 _atom_site_occupancy
  Mo  Mo0  1  1.50564169  1.57945401  1.56509425  1
  Mo  Mo1  1  -0.00163487  0.04669615  3.18358968  1
  Mo  Mo2  1  1.47695725  1.53927577  4.81876749  1
  Mo  Mo3  1  -0.00569843  0.00637217  6.36445165  1
  Mo  Mo4  1  1.56993335  1.65345838  7.72200684  1
  Mo  Mo5  1  0.07610482  3.08861879  -0.14487148  1
  Mo  Mo6  1  1.50313374  4.73407867  1.50575412  1
  Mo  Mo7  1  -0.04078353  3.14344934  3.12886497  1
  Mo  Mo8  1  1.61265501  4.66668252  4.76361161  1
  Mo  Mo9  1  -0.07970236  3.15157117  6.38843701  1
  Mo  Mo10  1  1.51431417  4.83507981  7.89084312  1
  Mo  Mo11  1  -0.04851153  6.45207977  0.00560808  1
  Mo  Mo12  1  1.51896341  7.76129751  1.59543637  1
  Mo  Mo13  1  0.06582662  6.19844555  3.15729582  1
  Mo  Mo14  1  1.53609681  7.80146648  4.79415563  1
  Mo  Mo15  1  -0.07503429  6.29004727  6.35885044  1
  Mo  Mo16  1  1.53479040  8.04532549  7.96882697  1
  Mo  Mo17  1  3.15187597  0.01138257  0.05432092  1
  Mo  Mo18  1  4.74818345  1.56491478  1.52359705  1
  Mo  Mo19  1  3.24100077  -0.05690028  3.18114132  1
  Mo  Mo20  1  4.88927184  1.64151726  4.76214661  1
  Mo  Mo21  1  3.22640165  -0.00557420  6.31850771  1
  Mo  Mo22  1  4.71038858  1.54570567  7.93665667  1
  Mo  Mo23  1  3.23666374  3.00207122  0.01865743  1
  Mo  Mo24  1  4.62814484  4.71859393  1.51828038  1
  Mo  Mo25  1  3.18371165  3.10641240  3.15650789  1
  Mo  Mo26  1  4.74582656  4.75043122  4.70244361  1
  Mo  Mo27  1  3.21366207  3.15826377  6.39983002  1
  Mo  Mo28  1  4.76447727  4.74034832  7.84994806  1
  Mo  Mo29  1  3.17647944  6.27243883  -0.09240923  1
  Mo  Mo30  1  4.69785072  7.91769555  1.42910524  1
  Mo  Mo31  1  3.27476966  6.30625483  3.08336881  1
  Mo  Mo32  1  4.71976618  7.86418720  4.77761298  1
  Mo  Mo33  1  3.20564806  6.36135635  6.34277757  1
  Mo  Mo34  1  4.74682047  7.85429718  7.91901834  1
  Mo  Mo35  1  6.28309250  0.05302911  -0.03970043  1
  Mo  Mo36  1  7.92112131  1.59138406  1.53277624  1
  Mo  Mo37  1  6.30588972  -0.01628380  3.04466645  1
  Mo  Mo38  1  7.88908492  1.51236345  4.80427462  1
  Mo  Mo39  1  6.23137894  -0.00560158  6.32383686  1
  Mo  Mo40  1  7.88858951  1.52988289  7.89284440  1
  Mo  Mo41  1  6.26365577  3.14032842  -0.04319425  1
  Mo  Mo42  1  7.89805657  4.75798517  1.46011593  1
  Mo  Mo43  1  6.25806398  3.28275630  3.20561116  1
  Mo  Mo44  1  7.86777967  4.62961866  4.71133892  1
  Mo  Mo45  1  6.26159378  3.21172438  6.31818408  1
  Mo  Mo46  1  7.91920583  4.74315235  7.90957762  1
  Mo  Mo47  1  6.41077776  6.45843209  0.03267987  1
  Mo  Mo48  1  7.90139228  7.92627023  1.70744565  1
  Mo  Mo49  1  6.39356848  6.28989795  3.21658465  1
  Mo  Mo50  1  7.84602607  7.96249647  4.76310875  1
  Mo  Mo51  1  6.27726596  6.25760873  6.37405439  1
  Mo  Mo52  1  7.94532604  7.91401294  7.82341139  1
