# generated using pymatgen
data_Mo
_symmetry_space_group_name_H-M   'P 1'
_cell_length_a   9.46603805
_cell_length_b   9.46603785
_cell_length_c   9.46603779
_cell_angle_alpha   90.00000282
_cell_angle_beta   89.99999931
_cell_angle_gamma   89.99999840
_symmetry_Int_Tables_number   1
_chemical_formula_structural   Mo
_chemical_formula_sum   Mo53
_cell_volume   848.21259331
_cell_formula_units_Z   53
loop_
 _symmetry_equiv_pos_site_id
 _symmetry_equiv_pos_as_xyz
  1  'x, y, z'
loop_
 _atom_site_type_symbol
 _atom_site_label
 _atom_site_symmetry_multiplicity
 _atom_site_fract_x
 _atom_site_fract_y
 _atom_site_fract_z
 _atom_site_occupancy
  Mo  Mo0  1  1.49391827  1.50858153  1.47916151  1
  Mo  Mo1  1  0.02500669  -0.03118872  3.24099838  1
  Mo  Mo2  1  1.41814746  1.55409260  4.78694269  1
  Mo  Mo3  1  -0.09021493  -0.04336490  6.28127622  1
  Mo  Mo4  1  1.63530542  1.54283386  7.80233961  1
  Mo  Mo5  1  0.05138263  3.07794975  -0.17637216  1
  Mo  Mo6  1  1.59957374  4.74613437  1.43383829  1
  Mo  Mo7  1  -0.06645463  3.09192794  3.09746083  1
  Mo  Mo8  1  1.52857318  4.64540470  4.77196587  1
  Mo  Mo9  1  -0.10829231  3.10010623  6.38228730  1
  Mo  Mo10  1  1.53686055  4.73793870  7.92639103  1
  Mo  Mo11  1  -0.09901773  6.38718015  0.06968715  1
  Mo  Mo12  1  1.54061183  7.78148098  1.66610673  1
  Mo  Mo13  1  0.07037487  6.18496047  3.20066878  1
  Mo  Mo14  1  1.66214776  7.81781853  4.77992790  1
  Mo  Mo15  1  -0.04434219  6.27969115  6.30722051  1
  Mo  Mo16  1  1.57527490  7.99680930  7.95990703  1
  Mo  Mo17  1  3.13116148  0.07384593  0.02540358  1
  Mo  Mo18  1  4.78826114  1.61412800  1.57580045  1
  Mo  Mo19  1  3.23241095  -0.01213156  3.16901047  1
  Mo  Mo20  1  4.87779046  1.66135618  4.76841254  1
  Mo  Mo21  1  3.23505736  0.00126182  6.24291970  1
  Mo  Mo22  1  4.68102040  1.58109064  7.94571473  1
  Mo  Mo23  1  3.21739507  3.12053559  0.01876148  1
  Mo  Mo24  1  4.66177256  4.75591155  1.53450310  1
  Mo  Mo25  1  3.11773526  3.21485818  3.18876667  1
  Mo  Mo26  1  4.74946728  4.74839633  4.83522822  1
  Mo  Mo27  1  3.14391436  3.13927730  6.40453388  1
  Mo  Mo28  1  4.76007471  4.80307318  7.90054002  1
  Mo  Mo29  1  3.12590720  6.32016689  -0.08355085  1
  Mo  Mo30  1  4.83109195  7.96027946  1.45770419  1
  Mo  Mo31  1  3.24615863  6.28942582  3.13992592  1
  Mo  Mo32  1  4.79564225  7.86205328  4.73251837  1
  Mo  Mo33  1  3.17940911  6.37252404  6.29508016  1
  Mo  Mo34  1  4.71215116  7.88594487  7.92806967  1
  Mo  Mo35  1  6.25508926  0.02577888  0.00046908  1
  Mo  Mo36  1  7.93095259  1.59821237  1.60991836  1
  Mo  Mo37  1  6.31016335  -0.02513125  3.00082670  1
  Mo  Mo38  1  7.82032765  1.49828045  4.78672372  1
  Mo  Mo39  1  6.25446834  0.00551986  6.31839379  1
  Mo  Mo40  1  7.77188386  1.52370346  7.88887981  1
  Mo  Mo41  1  6.30301828  3.09633887  -0.06783142  1
  Mo  Mo42  1  7.92817866  4.79264682  1.48166957  1
  Mo  Mo43  1  6.26558639  3.22260887  3.12638045  1
  Mo  Mo44  1  7.85716328  4.64738145  4.75350884  1
  Mo  Mo45  1  6.31830902  3.17033664  6.32404367  1
  Mo  Mo46  1  7.91201980  4.78374524  7.94785594  1
  Mo  Mo47  1  6.35939785  6.44771413  -0.03400909  1
  Mo  Mo48  1  7.99238120  7.96162867  1.67149696  1
  Mo  Mo49  1  6.37711589  6.30503629  3.14983635  1
  Mo  Mo50  1  7.92929504  7.91179273  4.75968535  1
  Mo  Mo51  1  6.27914218  6.26493201  6.28412963  1
  Mo  Mo52  1  7.90609472  7.98497371  7.89472250  1
