# generated using pymatgen
data_Mo
_symmetry_space_group_name_H-M   'P 1'
_cell_length_a   9.46603805
_cell_length_b   9.46603785
_cell_length_c   9.46603779
_cell_angle_alpha   90.00000282
_cell_angle_beta   89.99999931
_cell_angle_gamma   89.99999840
_symmetry_Int_Tables_number   1
_chemical_formula_structural   Mo
_chemical_formula_sum   Mo53
_cell_volume   848.21259331
_cell_formula_units_Z   53
loop_
 _symmetry_equiv_pos_site_id
 _symmetry_equiv_pos_as_xyz
  1  'x, y, z'
loop_
 _atom_site_type_symbol
 _atom_site_label
 _atom_site_symmetry_multiplicity
 _atom_site_fract_x
 _atom_site_fract_y
 _atom_site_fract_z
 _atom_site_occupancy
  Mo  Mo0  1  1.56561824  1.49633434  1.50135891  1
  Mo  Mo1  1  0.03502280  -0.07585572  3.10689000  1
  Mo  Mo2  1  1.56577835  1.53877461  4.64592034  1
  Mo  Mo3  1  0.02763588  -0.03854499  6.30968259  1
  Mo  Mo4  1  1.53120052  1.38873488  8.05306698  1
  Mo  Mo5  1  -0.04792419  3.11141785  0.06975469  1
  Mo  Mo6  1  1.60859700  4.69648270  1.61340995  1
  Mo  Mo7  1  -0.00964170  3.11031304  3.12884337  1
  Mo  Mo8  1  1.49919478  4.69713584  4.76717943  1
  Mo  Mo9  1  0.00347579  3.08294692  6.17576347  1
  Mo  Mo10  1  1.55877339  4.64452794  7.91729971  1
  Mo  Mo11  1  0.06402127  6.29732676  -0.05806286  1
  Mo  Mo12  1  1.70986618  8.01838981  1.61208129  1
  Mo  Mo13  1  -0.03289721  6.26813725  3.20776985  1
  Mo  Mo14  1  1.69928922  7.93224918  4.72005377  1
  Mo  Mo15  1  0.06412293  6.31325222  6.31843930  1
  Mo  Mo16  1  1.55508248  7.79558716  7.88764796  1
  Mo  Mo17  1  3.12274359  -0.04752819  -0.01356130  1
  Mo  Mo18  1  4.65034727  1.66161401  1.61542766  1
  Mo  Mo19  1  3.12957096  0.13296636  3.13948403  1
  Mo  Mo20  1  4.51052345  1.57709947  4.69540558  1
  Mo  Mo21  1  3.13095316  0.02351788  6.22736704  1
  Mo  Mo22  1  4.71688060  1.59007540  7.90968368  1
  Mo  Mo23  1  3.10766985  3.27877616  -0.00930950  1
  Mo  Mo24  1  4.89418619  4.80781955  1.60076763  1
  Mo  Mo25  1  3.06419066  3.23702750  3.18485396  1
  Mo  Mo26  1  4.70660188  4.71820587  4.77875467  1
  Mo  Mo27  1  3.06998071  3.16178349  6.21767091  1
  Mo  Mo28  1  4.70216148  4.75285577  7.97418617  1
  Mo  Mo29  1  3.07082663  6.42860890  0.08472219  1
  Mo  Mo30  1  4.76560555  7.93484032  1.67907685  1
  Mo  Mo31  1  3.08440881  6.27140784  3.24153251  1
  Mo  Mo32  1  4.87423425  7.95872988  4.63243943  1
  Mo  Mo33  1  3.10123454  6.24939359  6.28608188  1
  Mo  Mo34  1  4.70529441  7.97769697  7.84686000  1
  Mo  Mo35  1  6.36714816  0.00197444  0.03896923  1
  Mo  Mo36  1  7.94606625  1.52248058  1.56363640  1
  Mo  Mo37  1  6.36408930  0.02448361  3.27708778  1
  Mo  Mo38  1  7.80569399  1.59671556  4.64232443  1
  Mo  Mo39  1  6.33053077  -0.03063363  6.21005704  1
  Mo  Mo40  1  7.81818276  1.55104186  7.92154361  1
  Mo  Mo41  1  6.37795566  3.21557737  0.04092123  1
  Mo  Mo42  1  7.98361479  4.71590637  1.63974940  1
  Mo  Mo43  1  6.32084572  3.10630791  3.12333585  1
  Mo  Mo44  1  7.90583535  4.79066507  4.76590618  1
  Mo  Mo45  1  6.28427905  3.14051562  6.30747942  1
  Mo  Mo46  1  7.87495650  4.78647158  7.94282929  1
  Mo  Mo47  1  6.20317426  6.24824996  -0.08980051  1
  Mo  Mo48  1  8.05297428  7.91968544  1.44491605  1
  Mo  Mo49  1  6.30028156  6.28104093  3.06447927  1
  Mo  Mo50  1  8.02444808  7.80352958  4.72961977  1
  Mo  Mo51  1  6.35655931  6.40596142  6.22410719  1
  Mo  Mo52  1  7.86459877  7.91377906  8.07014649  1
