# generated using pymatgen
data_Mo
_symmetry_space_group_name_H-M   'P 1'
_cell_length_a   9.46603805
_cell_length_b   9.46603785
_cell_length_c   9.46603779
_cell_angle_alpha   90.00000282
_cell_angle_beta   89.99999931
_cell_angle_gamma   89.99999840
_symmetry_Int_Tables_number   1
_chemical_formula_structural   Mo
_chemical_formula_sum   Mo53
_cell_volume   848.21259331
_cell_formula_units_Z   53
loop_
 _symmetry_equiv_pos_site_id
 _symmetry_equiv_pos_as_xyz
  1  'x, y, z'
loop_
 _atom_site_type_symbol
 _atom_site_label
 _atom_site_symmetry_multiplicity
 _atom_site_fract_x
 _atom_site_fract_y
 _atom_site_fract_z
 _atom_site_occupancy
  Mo  Mo0  1  1.55836275  1.60677956  1.50808299  1
  Mo  Mo1  1  -0.04926406  0.10447498  3.06618029  1
  Mo  Mo2  1  1.47270485  1.53527850  4.73501112  1
  Mo  Mo3  1  0.03817410  0.01098124  6.34553117  1
  Mo  Mo4  1  1.38302863  1.58980806  7.93234703  1
  Mo  Mo5  1  0.04434081  3.17320882  0.05480705  1
  Mo  Mo6  1  1.54699844  4.77409004  1.67079177  1
  Mo  Mo7  1  0.00588557  3.21523055  3.25515268  1
  Mo  Mo8  1  1.64278824  4.79236977  4.72451740  1
  Mo  Mo9  1  -0.01006046  3.21095658  6.35940199  1
  Mo  Mo10  1  1.50677263  4.64063512  7.95597744  1
  Mo  Mo11  1  0.02097459  6.24758433  -0.00652667  1
  Mo  Mo12  1  1.53353825  7.87927877  1.48132688  1
  Mo  Mo13  1  0.03727908  6.41654702  3.09444308  1
  Mo  Mo14  1  1.48957196  7.91207174  4.71537466  1
  Mo  Mo15  1  -0.07061743  6.27559737  6.29532809  1
  Mo  Mo16  1  1.65767381  7.86886867  7.87611600  1
  Mo  Mo17  1  3.21711617  0.03396005  -0.02625258  1
  Mo  Mo18  1  4.76227485  1.52552841  1.43095665  1
  Mo  Mo19  1  3.13718063  -0.07562252  3.16228034  1
  Mo  Mo20  1  4.76029349  1.56798290  4.74511592  1
  Mo  Mo21  1  3.14265771  -0.02501790  6.43428222  1
  Mo  Mo22  1  4.68756925  1.53617621  7.91819694  1
  Mo  Mo23  1  3.19236392  3.10753138  -0.00883208  1
  Mo  Mo24  1  4.64749666  4.68591390  1.56743309  1
  Mo  Mo25  1  3.21002416  3.11594185  3.08451391  1
  Mo  Mo26  1  4.73889974  4.79008316  4.63408335  1
  Mo  Mo27  1  3.13336094  3.12080123  6.34735472  1
  Mo  Mo28  1  4.66305265  4.68220321  7.81621433  1
  Mo  Mo29  1  3.21907010  6.21643889  -0.00419567  1
  Mo  Mo30  1  4.73233385  7.94515798  1.55362633  1
  Mo  Mo31  1  3.20822789  6.40265226  3.15677188  1
  Mo  Mo32  1  4.62525063  7.90672468  4.83741968  1
  Mo  Mo33  1  3.20604082  6.30154618  6.33707668  1
  Mo  Mo34  1  4.81038204  7.86159841  7.93857809  1
  Mo  Mo35  1  6.32142628  0.04046645  -0.04333720  1
  Mo  Mo36  1  7.85428434  1.48069599  1.50053554  1
  Mo  Mo37  1  6.29497051  -0.01368129  3.13827900  1
  Mo  Mo38  1  7.96681701  1.57364747  4.82212421  1
  Mo  Mo39  1  6.38383896  0.06719819  6.34628091  1
  Mo  Mo40  1  8.00270822  1.56866042  7.92107892  1
  Mo  Mo41  1  6.30322107  3.18522444  -0.01129332  1
  Mo  Mo42  1  7.91864515  4.71692209  1.48825964  1
  Mo  Mo43  1  6.31565629  3.18442921  3.28616313  1
  Mo  Mo44  1  7.89670080  4.74387614  4.72132083  1
  Mo  Mo45  1  6.23855813  3.20415518  6.26057066  1
  Mo  Mo46  1  7.84946742  4.61708975  7.86444546  1
  Mo  Mo47  1  6.31642446  6.35688775  0.05524131  1
  Mo  Mo48  1  7.86200369  7.82325700  1.46860988  1
  Mo  Mo49  1  6.40160586  6.32845037  3.25174449  1
  Mo  Mo50  1  7.93781832  8.07986110  4.70043468  1
  Mo  Mo51  1  6.25493586  6.25869695  6.34364818  1
  Mo  Mo52  1  7.96503463  7.81665474  7.88325711  1
