# generated using pymatgen
data_Mo
_symmetry_space_group_name_H-M   'P 1'
_cell_length_a   9.46603805
_cell_length_b   9.46603785
_cell_length_c   9.46603779
_cell_angle_alpha   90.00000282
_cell_angle_beta   89.99999931
_cell_angle_gamma   89.99999840
_symmetry_Int_Tables_number   1
_chemical_formula_structural   Mo
_chemical_formula_sum   Mo53
_cell_volume   848.21259331
_cell_formula_units_Z   53
loop_
 _symmetry_equiv_pos_site_id
 _symmetry_equiv_pos_as_xyz
  1  'x, y, z'
loop_
 _atom_site_type_symbol
 _atom_site_label
 _atom_site_symmetry_multiplicity
 _atom_site_fract_x
 _atom_site_fract_y
 _atom_site_fract_z
 _atom_site_occupancy
  Mo  Mo0  1  1.51875127  1.60520377  1.59105951  1
  Mo  Mo1  1  -0.01320758  0.07123366  3.07141365  1
  Mo  Mo2  1  1.51364545  1.60514268  4.80003055  1
  Mo  Mo3  1  -0.03722551  -0.02149742  6.37093143  1
  Mo  Mo4  1  1.48801013  1.63877788  7.82110752  1
  Mo  Mo5  1  -0.02142723  3.15914390  0.06414352  1
  Mo  Mo6  1  1.55889639  4.75744016  1.52362287  1
  Mo  Mo7  1  0.02685643  3.25228006  3.22456427  1
  Mo  Mo8  1  1.61747593  4.78345882  4.75085887  1
  Mo  Mo9  1  -0.00829677  3.28229681  6.46497292  1
  Mo  Mo10  1  1.56837432  4.72509572  7.90911450  1
  Mo  Mo11  1  -0.04554173  6.29299384  0.04044206  1
  Mo  Mo12  1  1.39798443  7.85299442  1.47160929  1
  Mo  Mo13  1  0.04930694  6.44811179  3.11773622  1
  Mo  Mo14  1  1.43747844  7.92275896  4.75076614  1
  Mo  Mo15  1  -0.04883302  6.30066872  6.24682292  1
  Mo  Mo16  1  1.63589811  7.88678620  7.93183855  1
  Mo  Mo17  1  3.12791426  0.02228794  -0.02645192  1
  Mo  Mo18  1  4.84246585  1.47451186  1.51375467  1
  Mo  Mo19  1  3.18204766  -0.12812738  3.16505533  1
  Mo  Mo20  1  4.85444105  1.49756440  4.75285797  1
  Mo  Mo21  1  3.19848670  -0.03543327  6.38385343  1
  Mo  Mo22  1  4.74852700  1.55713312  7.79291681  1
  Mo  Mo23  1  3.20279783  3.12051709  0.01682822  1
  Mo  Mo24  1  4.61886115  4.67141922  1.50187284  1
  Mo  Mo25  1  3.27019939  3.04934350  3.17076220  1
  Mo  Mo26  1  4.69598245  4.78552823  4.69729534  1
  Mo  Mo27  1  3.17612439  3.11754059  6.34270402  1
  Mo  Mo28  1  4.70866799  4.68661082  7.85447275  1
  Mo  Mo29  1  3.26285312  6.16390224  -0.06999835  1
  Mo  Mo30  1  4.76823582  7.87841197  1.51218063  1
  Mo  Mo31  1  3.29566697  6.39074058  3.10621139  1
  Mo  Mo32  1  4.61479386  7.90231080  4.87761134  1
  Mo  Mo33  1  3.18020528  6.33870053  6.33614227  1
  Mo  Mo34  1  4.82124531  7.83486416  7.99475228  1
  Mo  Mo35  1  6.35485181  -0.03830329  -0.08582060  1
  Mo  Mo36  1  7.83058260  1.62993112  1.51809878  1
  Mo  Mo37  1  6.21845832  -0.00132167  3.06794844  1
  Mo  Mo38  1  7.94876990  1.55097187  4.80998475  1
  Mo  Mo39  1  6.33888903  0.07885155  6.47320421  1
  Mo  Mo40  1  7.99164400  1.54053630  7.92848199  1
  Mo  Mo41  1  6.28589024  3.16063651  -0.03531298  1
  Mo  Mo42  1  7.81828723  4.68594219  1.47557055  1
  Mo  Mo43  1  6.33923607  3.16935310  3.14614888  1
  Mo  Mo44  1  7.94935310  4.74955402  4.69899890  1
  Mo  Mo45  1  6.28882384  3.18073200  6.33768993  1
  Mo  Mo46  1  7.83478478  4.61375574  7.84338982  1
  Mo  Mo47  1  6.34512473  6.30627253  0.08499553  1
  Mo  Mo48  1  7.80125867  7.90697868  1.56693288  1
  Mo  Mo49  1  6.34189031  6.39907539  3.24266437  1
  Mo  Mo50  1  7.85175060  8.04799713  4.72124452  1
  Mo  Mo51  1  6.26149258  6.24537013  6.38181691  1
  Mo  Mo52  1  7.97711433  7.86880368  7.73595737  1
