# generated using pymatgen
data_Mo
_symmetry_space_group_name_H-M   'P 1'
_cell_length_a   9.48969964
_cell_length_b   9.48969964
_cell_length_c   9.48969964
_cell_angle_alpha   90.00000000
_cell_angle_beta   90.00000000
_cell_angle_gamma   90.00000000
_symmetry_Int_Tables_number   1
_chemical_formula_structural   Mo
_chemical_formula_sum   Mo53
_cell_volume   854.58919962
_cell_formula_units_Z   53
loop_
 _symmetry_equiv_pos_site_id
 _symmetry_equiv_pos_as_xyz
  1  'x, y, z'
loop_
 _atom_site_type_symbol
 _atom_site_label
 _atom_site_symmetry_multiplicity
 _atom_site_fract_x
 _atom_site_fract_y
 _atom_site_fract_z
 _atom_site_occupancy
  Mo  Mo0  1  1.59166066  1.53920027  1.60633924  1
  Mo  Mo1  1  0.00286897  -0.02762718  3.09415692  1
  Mo  Mo2  1  1.54731355  1.57010441  4.70209436  1
  Mo  Mo3  1  0.03570962  0.04019903  6.42231531  1
  Mo  Mo4  1  1.54527371  1.52922465  7.97496076  1
  Mo  Mo5  1  -0.01419165  3.04773253  0.02347598  1
  Mo  Mo6  1  1.58977322  4.72000355  1.56928930  1
  Mo  Mo7  1  -0.00379141  3.16393240  3.14444753  1
  Mo  Mo8  1  1.57907659  4.68735342  4.67716335  1
  Mo  Mo9  1  -0.02277389  3.13555850  6.34692357  1
  Mo  Mo10  1  1.46767735  4.75333866  7.88367839  1
  Mo  Mo11  1  0.00316393  6.37587670  -0.06836420  1
  Mo  Mo12  1  1.56768547  7.93619170  1.56120117  1
  Mo  Mo13  1  0.02060151  6.36027651  3.12203497  1
  Mo  Mo14  1  1.53846426  7.93052563  4.78801907  1
  Mo  Mo15  1  0.04669863  6.32044342  6.29281170  1
  Mo  Mo16  1  1.56247422  7.93181871  7.94598016  1
  Mo  Mo17  1  3.12971313  -0.03379256  0.00223649  1
  Mo  Mo18  1  4.74822078  1.58562601  1.55595168  1
  Mo  Mo19  1  3.18678084  -0.01095046  3.17287551  1
  Mo  Mo20  1  4.73057870  1.57771846  4.71230499  1
  Mo  Mo21  1  3.22204462  0.05176459  6.36961559  1
  Mo  Mo22  1  4.75521454  1.58712948  7.84596786  1
  Mo  Mo23  1  3.13234634  3.17576217  -0.02410988  1
  Mo  Mo24  1  4.79371329  4.74975996  1.59538109  1
  Mo  Mo25  1  3.20051274  3.09496020  3.17091200  1
  Mo  Mo26  1  4.68912676  4.76496562  4.82750543  1
  Mo  Mo27  1  3.04600852  3.11839765  6.34884841  1
  Mo  Mo28  1  4.70797770  4.71943600  7.93999976  1
  Mo  Mo29  1  3.18503868  6.35421918  -0.03075814  1
  Mo  Mo30  1  4.77293960  7.88438961  1.58539717  1
  Mo  Mo31  1  3.13999316  6.30853955  3.21377267  1
  Mo  Mo32  1  4.71219686  7.94121084  4.71499259  1
  Mo  Mo33  1  3.16038952  6.30840656  6.35319707  1
  Mo  Mo34  1  4.72709120  7.89726409  7.91435480  1
  Mo  Mo35  1  6.34267604  0.00635393  0.03568787  1
  Mo  Mo36  1  7.89575575  1.55488324  1.55213240  1
  Mo  Mo37  1  6.30937391  0.04417169  3.15227625  1
  Mo  Mo38  1  7.94794798  1.58780573  4.74492268  1
  Mo  Mo39  1  6.36945469  0.00281759  6.24924792  1
  Mo  Mo40  1  7.92365626  1.54233517  7.95069236  1
  Mo  Mo41  1  6.37107880  3.20692054  -0.04696405  1
  Mo  Mo42  1  7.96593696  4.82889482  1.55912950  1
  Mo  Mo43  1  6.36142346  3.21828958  3.17374574  1
  Mo  Mo44  1  8.00862309  4.76550870  4.80663951  1
  Mo  Mo45  1  6.31023623  3.13820933  6.30377385  1
  Mo  Mo46  1  7.96203374  4.74808225  7.93520867  1
  Mo  Mo47  1  6.32719956  6.33191765  -0.01442631  1
  Mo  Mo48  1  7.93171574  7.94652119  1.58363059  1
  Mo  Mo49  1  6.29995974  6.31758722  3.19865531  1
  Mo  Mo50  1  7.90854712  7.95426192  4.72378659  1
  Mo  Mo51  1  6.29482886  6.27809469  6.34350807  1
  Mo  Mo52  1  7.89022411  7.95662761  7.91162318  1
