# generated using pymatgen
data_Mo
_symmetry_space_group_name_H-M   'P 1'
_cell_length_a   9.46603805
_cell_length_b   9.46603785
_cell_length_c   9.46603779
_cell_angle_alpha   90.00000282
_cell_angle_beta   89.99999931
_cell_angle_gamma   89.99999840
_symmetry_Int_Tables_number   1
_chemical_formula_structural   Mo
_chemical_formula_sum   Mo53
_cell_volume   848.21259331
_cell_formula_units_Z   53
loop_
 _symmetry_equiv_pos_site_id
 _symmetry_equiv_pos_as_xyz
  1  'x, y, z'
loop_
 _atom_site_type_symbol
 _atom_site_label
 _atom_site_symmetry_multiplicity
 _atom_site_fract_x
 _atom_site_fract_y
 _atom_site_fract_z
 _atom_site_occupancy
  Mo  Mo0  1  1.59880563  1.55836874  1.70506948  1
  Mo  Mo1  1  -0.01321421  0.01741744  3.18600533  1
  Mo  Mo2  1  1.62260638  1.59235389  4.75821973  1
  Mo  Mo3  1  0.02809458  0.04492120  6.31947806  1
  Mo  Mo4  1  1.75249864  1.61667008  7.86398807  1
  Mo  Mo5  1  -0.03822803  3.13503323  0.00603149  1
  Mo  Mo6  1  1.53278680  4.70949087  1.51508458  1
  Mo  Mo7  1  0.13360534  3.19952695  3.13903723  1
  Mo  Mo8  1  1.56918841  4.73590034  4.68663049  1
  Mo  Mo9  1  0.03653349  3.13315075  6.28529080  1
  Mo  Mo10  1  1.58731348  4.79826590  7.86345582  1
  Mo  Mo11  1  -0.07290639  6.41788124  -0.08222331  1
  Mo  Mo12  1  1.46031438  7.96880729  1.61202716  1
  Mo  Mo13  1  0.00031708  6.27734209  3.12951152  1
  Mo  Mo14  1  1.57186877  7.92726223  4.70239315  1
  Mo  Mo15  1  0.12633320  6.36217188  6.29030982  1
  Mo  Mo16  1  1.45952953  7.87573361  7.93584139  1
  Mo  Mo17  1  3.09087593  -0.05966261  0.01500972  1
  Mo  Mo18  1  4.64608619  1.51191107  1.55309241  1
  Mo  Mo19  1  3.17367491  -0.02119342  3.11174891  1
  Mo  Mo20  1  4.73002375  1.55507846  4.70432755  1
  Mo  Mo21  1  3.11626664  -0.00495953  6.21546447  1
  Mo  Mo22  1  4.79372769  1.60160267  7.90634315  1
  Mo  Mo23  1  3.06395989  3.12077852  0.00812255  1
  Mo  Mo24  1  4.82672780  4.66203151  1.60230224  1
  Mo  Mo25  1  3.19630505  3.13647626  3.24407230  1
  Mo  Mo26  1  4.79050396  4.65446089  4.80554658  1
  Mo  Mo27  1  3.22230539  3.22388095  6.26376014  1
  Mo  Mo28  1  4.79878270  4.73367340  7.91657610  1
  Mo  Mo29  1  3.07791408  6.39959028  0.02239160  1
  Mo  Mo30  1  4.64615128  7.80987771  1.60981199  1
  Mo  Mo31  1  3.09208906  6.17313160  3.10301895  1
  Mo  Mo32  1  4.78496152  7.87724515  4.72504235  1
  Mo  Mo33  1  3.14216366  6.31866792  6.27060282  1
  Mo  Mo34  1  4.68128863  7.95597209  7.92607470  1
  Mo  Mo35  1  6.36935909  -0.05817880  0.06950883  1
  Mo  Mo36  1  7.95184344  1.63518902  1.59312512  1
  Mo  Mo37  1  6.35692367  -0.01093678  3.20595103  1
  Mo  Mo38  1  7.86124742  1.63587758  4.63760005  1
  Mo  Mo39  1  6.24837221  -0.09006639  6.24452115  1
  Mo  Mo40  1  7.90135941  1.52870222  7.93190537  1
  Mo  Mo41  1  6.23526176  3.04095744  -0.02353856  1
  Mo  Mo42  1  7.88246791  4.76604808  1.66926317  1
  Mo  Mo43  1  6.32850497  3.15599225  3.11208502  1
  Mo  Mo44  1  7.88170270  4.75508899  4.71491988  1
  Mo  Mo45  1  6.39881862  3.12655045  6.26699466  1
  Mo  Mo46  1  7.96182752  4.84304662  7.93601591  1
  Mo  Mo47  1  6.29182378  6.23022290  -0.04152445  1
  Mo  Mo48  1  7.90611407  8.00622953  1.65389715  1
  Mo  Mo49  1  6.21011852  6.28965828  3.11243563  1
  Mo  Mo50  1  7.78841022  7.83611125  4.76251829  1
  Mo  Mo51  1  6.36128301  6.34002726  6.27855598  1
  Mo  Mo52  1  7.82117074  7.93647277  7.94215663  1
