# generated using pymatgen
data_Mo
_symmetry_space_group_name_H-M   'P 1'
_cell_length_a   9.46603805
_cell_length_b   9.46603785
_cell_length_c   9.46603779
_cell_angle_alpha   90.00000282
_cell_angle_beta   89.99999931
_cell_angle_gamma   89.99999840
_symmetry_Int_Tables_number   1
_chemical_formula_structural   Mo
_chemical_formula_sum   Mo53
_cell_volume   848.21259331
_cell_formula_units_Z   53
loop_
 _symmetry_equiv_pos_site_id
 _symmetry_equiv_pos_as_xyz
  1  'x, y, z'
loop_
 _atom_site_type_symbol
 _atom_site_label
 _atom_site_symmetry_multiplicity
 _atom_site_fract_x
 _atom_site_fract_y
 _atom_site_fract_z
 _atom_site_occupancy
  Mo  Mo0  1  1.54475980  1.55909116  1.43293171  1
  Mo  Mo1  1  0.04688279  -0.02074785  3.20450407  1
  Mo  Mo2  1  1.61287100  1.52723123  4.67530865  1
  Mo  Mo3  1  -0.02176229  -0.01241625  6.24290050  1
  Mo  Mo4  1  1.55692765  1.53772284  7.97411676  1
  Mo  Mo5  1  0.04513684  3.10336671  -0.10465559  1
  Mo  Mo6  1  1.50257166  4.75324133  1.58953973  1
  Mo  Mo7  1  -0.11631861  3.04846764  3.15571063  1
  Mo  Mo8  1  1.59769959  4.66811495  4.79442657  1
  Mo  Mo9  1  0.04220483  3.08581151  6.19444032  1
  Mo  Mo10  1  1.57517933  4.72844313  7.97144659  1
  Mo  Mo11  1  0.04153038  6.38158858  0.05373132  1
  Mo  Mo12  1  1.58700140  7.94066425  1.66069405  1
  Mo  Mo13  1  -0.03229911  6.26201696  3.22909384  1
  Mo  Mo14  1  1.57962710  7.79731397  4.73111356  1
  Mo  Mo15  1  -0.03158423  6.30985727  6.30167183  1
  Mo  Mo16  1  1.55249696  8.06506884  7.84886181  1
  Mo  Mo17  1  3.11815741  0.04064260  0.00225786  1
  Mo  Mo18  1  4.75459578  1.59894500  1.59785214  1
  Mo  Mo19  1  3.15703664  0.03372263  3.22639453  1
  Mo  Mo20  1  4.67731459  1.62173807  4.72702512  1
  Mo  Mo21  1  3.20012250  -0.00082745  6.28570950  1
  Mo  Mo22  1  4.69899522  1.51131556  8.03554715  1
  Mo  Mo23  1  3.15952937  3.25569474  -0.05679546  1
  Mo  Mo24  1  4.65174842  4.73134424  1.53605795  1
  Mo  Mo25  1  3.09476834  3.21691031  3.03571866  1
  Mo  Mo26  1  4.78665030  4.77373628  4.70993767  1
  Mo  Mo27  1  3.17043458  3.18291109  6.36306105  1
  Mo  Mo28  1  4.73780138  4.79853545  7.93655010  1
  Mo  Mo29  1  3.03938201  6.34002588  -0.06071998  1
  Mo  Mo30  1  4.70855755  7.97128096  1.61011035  1
  Mo  Mo31  1  3.11667486  6.29890854  3.17780146  1
  Mo  Mo32  1  4.65478263  7.82217022  4.60381605  1
  Mo  Mo33  1  3.23305488  6.29306075  6.23614299  1
  Mo  Mo34  1  4.66423404  7.92332723  7.87264516  1
  Mo  Mo35  1  6.21843907  0.03127464  0.07013770  1
  Mo  Mo36  1  7.98456901  1.44519966  1.57185863  1
  Mo  Mo37  1  6.34577225  -0.03368390  3.15556448  1
  Mo  Mo38  1  7.94837599  1.54588459  4.77877011  1
  Mo  Mo39  1  6.30995588  -0.00184219  6.13721580  1
  Mo  Mo40  1  7.86109893  1.64772983  7.86571112  1
  Mo  Mo41  1  6.37605575  3.14153133  0.00340647  1
  Mo  Mo42  1  8.02350250  4.73675424  1.45282153  1
  Mo  Mo43  1  6.30352845  3.10737779  3.19915820  1
  Mo  Mo44  1  7.98307391  4.71804343  4.82209052  1
  Mo  Mo45  1  6.31733143  3.12102715  6.29785508  1
  Mo  Mo46  1  7.96084669  4.76844545  7.99744623  1
  Mo  Mo47  1  6.20008014  6.37112082  -0.03515860  1
  Mo  Mo48  1  7.90310334  7.82462730  1.59953705  1
  Mo  Mo49  1  6.39282499  6.19240863  3.12145875  1
  Mo  Mo50  1  8.03894337  7.90413925  4.74893801  1
  Mo  Mo51  1  6.29278858  6.28750287  6.27939826  1
  Mo  Mo52  1  7.81880838  8.03003407  8.12469224  1
