# generated using pymatgen
data_Mo
_symmetry_space_group_name_H-M   'P 1'
_cell_length_a   9.46603805
_cell_length_b   9.46603785
_cell_length_c   9.46603779
_cell_angle_alpha   90.00000282
_cell_angle_beta   89.99999931
_cell_angle_gamma   89.99999840
_symmetry_Int_Tables_number   1
_chemical_formula_structural   Mo
_chemical_formula_sum   Mo53
_cell_volume   848.21259331
_cell_formula_units_Z   53
loop_
 _symmetry_equiv_pos_site_id
 _symmetry_equiv_pos_as_xyz
  1  'x, y, z'
loop_
 _atom_site_type_symbol
 _atom_site_label
 _atom_site_symmetry_multiplicity
 _atom_site_fract_x
 _atom_site_fract_y
 _atom_site_fract_z
 _atom_site_occupancy
  Mo  Mo0  1  1.44809295  1.55034176  1.48480872  1
  Mo  Mo1  1  0.01221234  -0.10997165  3.01670288  1
  Mo  Mo2  1  1.50097246  1.58549143  4.74850922  1
  Mo  Mo3  1  0.00253134  -0.01763312  6.39434516  1
  Mo  Mo4  1  1.39175386  1.46812307  7.85807081  1
  Mo  Mo5  1  -0.03631918  3.13217415  0.01302041  1
  Mo  Mo6  1  1.57135091  4.70472194  1.52713179  1
  Mo  Mo7  1  -0.03495904  3.08654963  3.11902744  1
  Mo  Mo8  1  1.53383659  4.66402558  4.78691777  1
  Mo  Mo9  1  -0.04817215  3.20236855  6.42094537  1
  Mo  Mo10  1  1.53070509  4.76938922  7.86765054  1
  Mo  Mo11  1  0.01149185  6.35885837  0.02931921  1
  Mo  Mo12  1  1.61129067  7.86848869  1.46346217  1
  Mo  Mo13  1  0.07748108  6.24822314  3.25087655  1
  Mo  Mo14  1  1.60710484  7.89118848  4.83328480  1
  Mo  Mo15  1  -0.05903429  6.29762848  6.47439792  1
  Mo  Mo16  1  1.60683340  7.87088081  7.93619722  1
  Mo  Mo17  1  3.16120795  0.05276976  0.04064479  1
  Mo  Mo18  1  4.75407290  1.64709215  1.61632332  1
  Mo  Mo19  1  3.18627782  0.06714200  3.17018142  1
  Mo  Mo20  1  4.76765377  1.56926559  4.76933084  1
  Mo  Mo21  1  3.22755018  -0.01840847  6.34749164  1
  Mo  Mo22  1  4.67856064  1.63747612  7.86666639  1
  Mo  Mo23  1  3.27062864  3.13197773  0.03663157  1
  Mo  Mo24  1  4.74484871  4.85945989  1.51212215  1
  Mo  Mo25  1  3.14208694  3.12325150  3.19445191  1
  Mo  Mo26  1  4.64465047  4.71352156  4.62859303  1
  Mo  Mo27  1  3.13646546  3.05216076  6.25155800  1
  Mo  Mo28  1  4.69612441  4.68313519  7.81129813  1
  Mo  Mo29  1  3.27711352  6.37871797  -0.03526403  1
  Mo  Mo30  1  4.75266287  7.93425564  1.44295994  1
  Mo  Mo31  1  3.26488787  6.42548777  3.09350395  1
  Mo  Mo32  1  4.88259130  7.96308403  4.80426172  1
  Mo  Mo33  1  3.08722158  6.28863856  6.35201874  1
  Mo  Mo34  1  4.79787256  7.87417841  7.87166113  1
  Mo  Mo35  1  6.35462485  0.03400883  -0.05790334  1
  Mo  Mo36  1  7.91860687  1.51199413  1.45814071  1
  Mo  Mo37  1  6.27077747  -0.00502554  3.16914330  1
  Mo  Mo38  1  7.84226647  1.51385827  4.70354144  1
  Mo  Mo39  1  6.30802074  0.00911413  6.42800621  1
  Mo  Mo40  1  7.84997341  1.51690419  7.94092812  1
  Mo  Mo41  1  6.32314530  3.22969912  -0.01779668  1
  Mo  Mo42  1  7.86988313  4.63682094  1.57748476  1
  Mo  Mo43  1  6.33657059  3.17569194  3.12288869  1
  Mo  Mo44  1  7.84960681  4.68591007  4.72491376  1
  Mo  Mo45  1  6.22320047  3.20814866  6.34255218  1
  Mo  Mo46  1  7.80233294  4.79461160  7.90560514  1
  Mo  Mo47  1  6.37148853  6.37012887  0.05220499  1
  Mo  Mo48  1  7.93280557  7.88784996  1.51350283  1
  Mo  Mo49  1  6.38898554  6.33773792  3.19055260  1
  Mo  Mo50  1  7.86975679  7.88963735  4.75367220  1
  Mo  Mo51  1  6.28508546  6.32005737  6.33183801  1
  Mo  Mo52  1  7.98908306  7.91465088  7.84747268  1
