# generated using pymatgen
data_Mo
_symmetry_space_group_name_H-M   'P 1'
_cell_length_a   9.46603805
_cell_length_b   9.46603785
_cell_length_c   9.46603779
_cell_angle_alpha   90.00000282
_cell_angle_beta   89.99999931
_cell_angle_gamma   89.99999840
_symmetry_Int_Tables_number   1
_chemical_formula_structural   Mo
_chemical_formula_sum   Mo53
_cell_volume   848.21259331
_cell_formula_units_Z   53
loop_
 _symmetry_equiv_pos_site_id
 _symmetry_equiv_pos_as_xyz
  1  'x, y, z'
loop_
 _atom_site_type_symbol
 _atom_site_label
 _atom_site_symmetry_multiplicity
 _atom_site_fract_x
 _atom_site_fract_y
 _atom_site_fract_z
 _atom_site_occupancy
  Mo  Mo0  1  1.61252926  1.50080967  1.72229600  1
  Mo  Mo1  1  -0.04625277  0.03188505  3.16622903  1
  Mo  Mo2  1  1.41225295  1.47434395  4.74191407  1
  Mo  Mo3  1  0.01527056  0.01143512  6.30230282  1
  Mo  Mo4  1  1.63686461  1.60068182  7.90437691  1
  Mo  Mo5  1  -0.04727826  3.23046185  0.07554018  1
  Mo  Mo6  1  1.65757864  4.71043595  1.55245513  1
  Mo  Mo7  1  0.11352577  3.18496684  3.21606995  1
  Mo  Mo8  1  1.51664394  4.81011106  4.64943104  1
  Mo  Mo9  1  -0.13978305  3.17729773  6.29784780  1
  Mo  Mo10  1  1.50672845  4.62768107  7.92067105  1
  Mo  Mo11  1  0.04256307  6.21003180  0.04069853  1
  Mo  Mo12  1  1.59921975  7.92022360  1.48891525  1
  Mo  Mo13  1  0.06538502  6.30076360  3.11733423  1
  Mo  Mo14  1  1.55937988  8.00576791  4.59896161  1
  Mo  Mo15  1  0.07273631  6.32749280  6.19542409  1
  Mo  Mo16  1  1.52589977  7.85452092  7.98558220  1
  Mo  Mo17  1  3.19162647  -0.02801042  -0.06004826  1
  Mo  Mo18  1  4.65665602  1.53285237  1.51163572  1
  Mo  Mo19  1  3.18820175  -0.01991885  3.15290649  1
  Mo  Mo20  1  4.72182919  1.52410195  4.71005999  1
  Mo  Mo21  1  3.10391672  -0.01515421  6.37193415  1
  Mo  Mo22  1  4.75050584  1.45011347  7.89439353  1
  Mo  Mo23  1  2.99924766  3.11494382  0.02530012  1
  Mo  Mo24  1  4.84051680  4.72708730  1.62897480  1
  Mo  Mo25  1  3.21794777  3.19311114  3.20756067  1
  Mo  Mo26  1  4.69527805  4.77554260  4.77180582  1
  Mo  Mo27  1  3.04154970  3.17141655  6.32963638  1
  Mo  Mo28  1  4.65725131  4.71509895  7.83658580  1
  Mo  Mo29  1  3.25260411  6.21864339  0.03692312  1
  Mo  Mo30  1  4.81585816  8.00111978  1.57850752  1
  Mo  Mo31  1  3.15080711  6.28894968  3.20034588  1
  Mo  Mo32  1  4.65264148  7.94250057  4.77501477  1
  Mo  Mo33  1  3.18619766  6.28956826  6.28480800  1
  Mo  Mo34  1  4.74421787  7.85858064  7.90266202  1
  Mo  Mo35  1  6.36739568  0.00706671  0.04352776  1
  Mo  Mo36  1  7.85057076  1.57257520  1.53651194  1
  Mo  Mo37  1  6.36015030  0.10369731  3.13508772  1
  Mo  Mo38  1  7.90823789  1.58877015  4.63773109  1
  Mo  Mo39  1  6.40451757  0.05657826  6.34190712  1
  Mo  Mo40  1  7.93284650  1.56402689  7.86154287  1
  Mo  Mo41  1  6.16188323  3.15196752  0.03857075  1
  Mo  Mo42  1  7.93920897  4.83069116  1.70864769  1
  Mo  Mo43  1  6.25471872  3.18704704  3.18732992  1
  Mo  Mo44  1  7.83781565  4.77456367  4.70981324  1
  Mo  Mo45  1  6.31386685  3.15052381  6.23356063  1
  Mo  Mo46  1  7.87082769  4.68296052  7.86194465  1
  Mo  Mo47  1  6.40924613  6.25766682  -0.03244108  1
  Mo  Mo48  1  7.96085963  7.93046326  1.54988952  1
  Mo  Mo49  1  6.24358578  6.43992608  3.17336984  1
  Mo  Mo50  1  7.93523062  7.88566102  4.68944446  1
  Mo  Mo51  1  6.30362236  6.30019511  6.31223407  1
  Mo  Mo52  1  7.96116233  7.78201509  7.86212162  1
