# generated using pymatgen
data_Mo
_symmetry_space_group_name_H-M   'P 1'
_cell_length_a   9.46603805
_cell_length_b   9.46603785
_cell_length_c   9.46603779
_cell_angle_alpha   90.00000282
_cell_angle_beta   89.99999931
_cell_angle_gamma   89.99999840
_symmetry_Int_Tables_number   1
_chemical_formula_structural   Mo
_chemical_formula_sum   Mo53
_cell_volume   848.21259331
_cell_formula_units_Z   53
loop_
 _symmetry_equiv_pos_site_id
 _symmetry_equiv_pos_as_xyz
  1  'x, y, z'
loop_
 _atom_site_type_symbol
 _atom_site_label
 _atom_site_symmetry_multiplicity
 _atom_site_fract_x
 _atom_site_fract_y
 _atom_site_fract_z
 _atom_site_occupancy
  Mo  Mo0  1  1.67459492  1.55977503  1.50222495  1
  Mo  Mo1  1  0.00624408  0.06460931  3.06669711  1
  Mo  Mo2  1  1.76922873  1.60087211  4.75155750  1
  Mo  Mo3  1  -0.00721806  -0.00819362  6.39278013  1
  Mo  Mo4  1  1.54038348  1.49517762  7.93154475  1
  Mo  Mo5  1  -0.04140251  3.04420177  0.03059712  1
  Mo  Mo6  1  1.58741997  4.79586844  1.66996606  1
  Mo  Mo7  1  -0.16452402  3.21932951  3.15351597  1
  Mo  Mo8  1  1.71690414  4.68777304  4.77820277  1
  Mo  Mo9  1  0.12585669  3.19849039  6.21028958  1
  Mo  Mo10  1  1.52710423  4.81687605  7.85670539  1
  Mo  Mo11  1  0.01502388  6.36379000  -0.07299094  1
  Mo  Mo12  1  1.54278425  7.98360967  1.56093496  1
  Mo  Mo13  1  -0.07937637  6.40157457  3.01825098  1
  Mo  Mo14  1  1.48773205  7.84849940  4.75609815  1
  Mo  Mo15  1  -0.00588995  6.30018317  6.16975297  1
  Mo  Mo16  1  1.52574819  7.90667847  7.87417079  1
  Mo  Mo17  1  3.03747122  -0.06675600  0.03145181  1
  Mo  Mo18  1  4.82696338  1.50981266  1.52914908  1
  Mo  Mo19  1  3.07654530  0.00289882  3.16239094  1
  Mo  Mo20  1  4.68699459  1.59495856  4.75610737  1
  Mo  Mo21  1  3.16710874  0.04053496  6.27316204  1
  Mo  Mo22  1  4.75975688  1.44171229  7.87301350  1
  Mo  Mo23  1  3.16901667  3.16739201  0.02797037  1
  Mo  Mo24  1  4.67294346  4.69334635  1.57950951  1
  Mo  Mo25  1  3.14560334  3.15287343  3.16447555  1
  Mo  Mo26  1  4.81606080  4.75079080  4.82602865  1
  Mo  Mo27  1  3.18922104  3.20787858  6.32936410  1
  Mo  Mo28  1  4.77193434  4.63155022  8.03038425  1
  Mo  Mo29  1  3.05020993  6.26403085  -0.02887177  1
  Mo  Mo30  1  4.71345291  7.86658087  1.61871737  1
  Mo  Mo31  1  3.16323773  6.29132641  3.12860350  1
  Mo  Mo32  1  4.64338064  7.89915898  4.69939262  1
  Mo  Mo33  1  3.09421367  6.36780730  6.34510199  1
  Mo  Mo34  1  4.71324886  7.83007123  7.99131012  1
  Mo  Mo35  1  6.40005937  -0.06403349  -0.07354064  1
  Mo  Mo36  1  7.92831840  1.68016490  1.66104602  1
  Mo  Mo37  1  6.23869245  0.00094032  3.16439688  1
  Mo  Mo38  1  7.93552211  1.61127344  4.82066121  1
  Mo  Mo39  1  6.34411074  -0.03691502  6.12172481  1
  Mo  Mo40  1  7.96885796  1.55749489  7.92593731  1
  Mo  Mo41  1  6.34479674  3.08350109  -0.00719308  1
  Mo  Mo42  1  7.94010283  4.74139546  1.45229412  1
  Mo  Mo43  1  6.28457822  3.24060324  3.20478865  1
  Mo  Mo44  1  7.97154129  4.82573933  4.71910750  1
  Mo  Mo45  1  6.24071379  3.11330380  6.34227453  1
  Mo  Mo46  1  7.91505045  4.62981486  7.95150020  1
  Mo  Mo47  1  6.20786615  6.22398739  0.01849782  1
  Mo  Mo48  1  7.90703372  7.96546227  1.53467097  1
  Mo  Mo49  1  6.34356637  6.27935076  3.15199552  1
  Mo  Mo50  1  7.86854333  8.02206419  4.70978121  1
  Mo  Mo51  1  6.35166821  6.32860758  6.29299228  1
  Mo  Mo52  1  7.87686486  7.85801504  8.00735575  1
