# generated using pymatgen
data_Mo
_symmetry_space_group_name_H-M   'P 1'
_cell_length_a   9.46603805
_cell_length_b   9.46603785
_cell_length_c   9.46603779
_cell_angle_alpha   90.00000282
_cell_angle_beta   89.99999931
_cell_angle_gamma   89.99999840
_symmetry_Int_Tables_number   1
_chemical_formula_structural   Mo
_chemical_formula_sum   Mo53
_cell_volume   848.21259331
_cell_formula_units_Z   53
loop_
 _symmetry_equiv_pos_site_id
 _symmetry_equiv_pos_as_xyz
  1  'x, y, z'
loop_
 _atom_site_type_symbol
 _atom_site_label
 _atom_site_symmetry_multiplicity
 _atom_site_fract_x
 _atom_site_fract_y
 _atom_site_fract_z
 _atom_site_occupancy
  Mo  Mo0  1  1.48057345  1.59936454  1.57276745  1
  Mo  Mo1  1  -0.01265501  -0.04860012  3.23615835  1
  Mo  Mo2  1  1.40686577  1.51894900  4.73160760  1
  Mo  Mo3  1  -0.04302545  -0.02963393  6.26455562  1
  Mo  Mo4  1  1.64056920  1.56176332  7.83826642  1
  Mo  Mo5  1  0.02037819  3.18065005  -0.04621174  1
  Mo  Mo6  1  1.45534217  4.75158621  1.36028534  1
  Mo  Mo7  1  0.20317056  3.09434200  3.13673144  1
  Mo  Mo8  1  1.44720208  4.78184402  4.70280660  1
  Mo  Mo9  1  0.02646969  3.14110349  6.38560829  1
  Mo  Mo10  1  1.62431439  4.65577489  7.88432019  1
  Mo  Mo11  1  -0.06994902  6.42368353  0.12172234  1
  Mo  Mo12  1  1.42846389  7.86994569  1.64438434  1
  Mo  Mo13  1  0.00921040  6.24416160  3.28155492  1
  Mo  Mo14  1  1.56695809  7.88555616  4.70716540  1
  Mo  Mo15  1  0.07450174  6.35394190  6.34213919  1
  Mo  Mo16  1  1.52055195  7.95670623  7.89833693  1
  Mo  Mo17  1  3.19946956  0.07409244  -0.04060326  1
  Mo  Mo18  1  4.65331633  1.61824787  1.61245558  1
  Mo  Mo19  1  3.25405808  0.02350267  3.13319703  1
  Mo  Mo20  1  4.81058798  1.53729612  4.69830946  1
  Mo  Mo21  1  3.20672940  0.00034599  6.25280573  1
  Mo  Mo22  1  4.75271037  1.64275315  7.89293739  1
  Mo  Mo23  1  3.20985039  3.20615923  -0.05316623  1
  Mo  Mo24  1  4.74779676  4.75494579  1.52064577  1
  Mo  Mo25  1  3.22361191  3.21221674  3.13446809  1
  Mo  Mo26  1  4.67333683  4.73236384  4.66537974  1
  Mo  Mo27  1  3.23653427  3.12591581  6.28992712  1
  Mo  Mo28  1  4.74003726  4.81893464  7.86698369  1
  Mo  Mo29  1  3.17860885  6.35775804  0.05051826  1
  Mo  Mo30  1  4.71528882  7.95161927  1.56809319  1
  Mo  Mo31  1  3.09834969  6.32107773  3.24425223  1
  Mo  Mo32  1  4.72335348  7.88905218  4.70639244  1
  Mo  Mo33  1  3.23630244  6.22445717  6.30377976  1
  Mo  Mo34  1  4.69229386  7.89762325  7.81196780  1
  Mo  Mo35  1  6.21259043  0.00358517  0.10601171  1
  Mo  Mo36  1  7.90764265  1.47204244  1.50196044  1
  Mo  Mo37  1  6.32405312  -0.04003774  3.12331183  1
  Mo  Mo38  1  7.91812400  1.55916576  4.73422782  1
  Mo  Mo39  1  6.26262577  0.06702484  6.41103940  1
  Mo  Mo40  1  7.92331671  1.46606010  7.91453655  1
  Mo  Mo41  1  6.34385477  3.15713398  0.04304238  1
  Mo  Mo42  1  7.88696375  4.73338122  1.58699722  1
  Mo  Mo43  1  6.38273633  3.02844074  3.10954505  1
  Mo  Mo44  1  7.92470523  4.67502019  4.78187489  1
  Mo  Mo45  1  6.46585364  3.15741446  6.37643243  1
  Mo  Mo46  1  7.89056008  4.80501972  7.89350121  1
  Mo  Mo47  1  6.33457811  6.32873627  0.00604068  1
  Mo  Mo48  1  7.84711467  7.87600753  1.61812207  1
  Mo  Mo49  1  6.25414451  6.32797380  3.16457882  1
  Mo  Mo50  1  7.91055473  7.78451347  4.74318881  1
  Mo  Mo51  1  6.25319143  6.25755149  6.35400753  1
  Mo  Mo52  1  7.81207592  7.99731944  7.79688888  1
