# generated using pymatgen
data_Mo
_symmetry_space_group_name_H-M   'P 1'
_cell_length_a   9.46603805
_cell_length_b   9.46603785
_cell_length_c   9.46603779
_cell_angle_alpha   90.00000282
_cell_angle_beta   89.99999931
_cell_angle_gamma   89.99999840
_symmetry_Int_Tables_number   1
_chemical_formula_structural   Mo
_chemical_formula_sum   Mo53
_cell_volume   848.21259331
_cell_formula_units_Z   53
loop_
 _symmetry_equiv_pos_site_id
 _symmetry_equiv_pos_as_xyz
  1  'x, y, z'
loop_
 _atom_site_type_symbol
 _atom_site_label
 _atom_site_symmetry_multiplicity
 _atom_site_fract_x
 _atom_site_fract_y
 _atom_site_fract_z
 _atom_site_occupancy
  Mo  Mo0  1  1.49128258  1.42267741  1.56334152  1
  Mo  Mo1  1  0.01794144  -0.06490483  3.03246650  1
  Mo  Mo2  1  1.55545808  1.57335034  4.66703554  1
  Mo  Mo3  1  0.02231477  -0.02771565  6.48187245  1
  Mo  Mo4  1  1.58073073  1.71608877  7.88469322  1
  Mo  Mo5  1  -0.03279203  3.08304573  0.06312100  1
  Mo  Mo6  1  1.63488907  4.77330003  1.76921187  1
  Mo  Mo7  1  -0.08038071  3.12951790  3.12780811  1
  Mo  Mo8  1  1.66177557  4.64964149  4.77273930  1
  Mo  Mo9  1  -0.02788809  3.12821250  6.22353817  1
  Mo  Mo10  1  1.47873444  4.84821145  7.91770269  1
  Mo  Mo11  1  0.07803275  6.29679636  0.00469315  1
  Mo  Mo12  1  1.58567781  7.94138086  1.53961274  1
  Mo  Mo13  1  0.02327882  6.31336332  3.17908810  1
  Mo  Mo14  1  1.55227721  7.89949884  4.70681214  1
  Mo  Mo15  1  0.10676946  6.25798779  6.41068445  1
  Mo  Mo16  1  1.58762746  7.90664123  7.95853007  1
  Mo  Mo17  1  3.07013781  -0.06875468  0.03787936  1
  Mo  Mo18  1  4.67988401  1.59430387  1.57219770  1
  Mo  Mo19  1  3.14316908  -0.00393713  3.18698481  1
  Mo  Mo20  1  4.61199991  1.60908160  4.76857415  1
  Mo  Mo21  1  3.13329925  -0.01550478  6.31880611  1
  Mo  Mo22  1  4.72880455  1.63265841  7.94855769  1
  Mo  Mo23  1  3.14268185  3.21491799  -0.03622152  1
  Mo  Mo24  1  4.70389092  4.79712943  1.56398139  1
  Mo  Mo25  1  3.14428144  3.13230907  3.13094865  1
  Mo  Mo26  1  4.75459529  4.67743883  4.69628589  1
  Mo  Mo27  1  3.10014652  3.14376810  6.23445306  1
  Mo  Mo28  1  4.76320503  4.70516575  7.83684483  1
  Mo  Mo29  1  3.23883817  6.28215982  -0.09837610  1
  Mo  Mo30  1  4.67017728  7.94195138  1.58039152  1
  Mo  Mo31  1  3.24001548  6.27123524  3.05712566  1
  Mo  Mo32  1  4.64676230  7.92471091  4.70445285  1
  Mo  Mo33  1  3.16250479  6.33858464  6.29051742  1
  Mo  Mo34  1  4.70651357  8.00316912  7.85163691  1
  Mo  Mo35  1  6.37310887  0.04452072  -0.01473004  1
  Mo  Mo36  1  7.91058322  1.52464026  1.49606530  1
  Mo  Mo37  1  6.38198571  0.02721649  3.27049218  1
  Mo  Mo38  1  7.86693888  1.42830477  4.64144081  1
  Mo  Mo39  1  6.36469228  -0.01177394  6.28191462  1
  Mo  Mo40  1  7.87856195  1.65259449  7.98269431  1
  Mo  Mo41  1  6.30281998  3.29162217  0.01950781  1
  Mo  Mo42  1  7.92580468  4.69991558  1.58162919  1
  Mo  Mo43  1  6.35532916  3.20241392  3.16713635  1
  Mo  Mo44  1  7.88230747  4.67955762  4.69051921  1
  Mo  Mo45  1  6.19613666  3.14373887  6.24562592  1
  Mo  Mo46  1  7.94156951  4.71030966  7.91211435  1
  Mo  Mo47  1  6.26857053  6.40173982  -0.01318684  1
  Mo  Mo48  1  7.87883992  7.82385807  1.58579868  1
  Mo  Mo49  1  6.36310976  6.25645885  3.22862806  1
  Mo  Mo50  1  7.87278586  7.86835863  4.75373289  1
  Mo  Mo51  1  6.38299019  6.32922209  6.23338572  1
  Mo  Mo52  1  7.96309305  7.88567417  7.97509036  1
