# generated using pymatgen
data_Mo
_symmetry_space_group_name_H-M   'P 1'
_cell_length_a   9.46603805
_cell_length_b   9.46603785
_cell_length_c   9.46603779
_cell_angle_alpha   90.00000282
_cell_angle_beta   89.99999931
_cell_angle_gamma   89.99999840
_symmetry_Int_Tables_number   1
_chemical_formula_structural   Mo
_chemical_formula_sum   Mo53
_cell_volume   848.21259331
_cell_formula_units_Z   53
loop_
 _symmetry_equiv_pos_site_id
 _symmetry_equiv_pos_as_xyz
  1  'x, y, z'
loop_
 _atom_site_type_symbol
 _atom_site_label
 _atom_site_symmetry_multiplicity
 _atom_site_fract_x
 _atom_site_fract_y
 _atom_site_fract_z
 _atom_site_occupancy
  Mo  Mo0  1  1.62218639  1.57578034  1.52151329  1
  Mo  Mo1  1  -0.10012604  0.02025622  3.13260591  1
  Mo  Mo2  1  1.54358901  1.52501516  4.72188765  1
  Mo  Mo3  1  0.01440968  0.03712265  6.30434346  1
  Mo  Mo4  1  1.48401333  1.57826460  7.99300285  1
  Mo  Mo5  1  0.02544169  3.21824509  -0.01371229  1
  Mo  Mo6  1  1.60492759  4.61173430  1.58418181  1
  Mo  Mo7  1  -0.06217884  3.16300377  3.12989416  1
  Mo  Mo8  1  1.58118272  4.79281470  4.73124463  1
  Mo  Mo9  1  -0.06055377  3.17435427  6.26329359  1
  Mo  Mo10  1  1.64641596  4.63371118  8.01250075  1
  Mo  Mo11  1  -0.03552841  6.29160148  0.04053404  1
  Mo  Mo12  1  1.66703493  7.86450929  1.52081680  1
  Mo  Mo13  1  0.03911581  6.32884501  3.15093859  1
  Mo  Mo14  1  1.55389676  7.95016087  4.79612219  1
  Mo  Mo15  1  -0.16372646  6.30751284  6.23035629  1
  Mo  Mo16  1  1.61616663  7.87997236  7.86083295  1
  Mo  Mo17  1  3.19550466  0.05532771  -0.04708629  1
  Mo  Mo18  1  4.81898109  1.48278148  1.57105164  1
  Mo  Mo19  1  3.05006628  -0.04941520  3.13230558  1
  Mo  Mo20  1  4.72876754  1.50371281  4.74658703  1
  Mo  Mo21  1  3.11027318  0.04266656  6.39954323  1
  Mo  Mo22  1  4.67239640  1.51039948  7.97906167  1
  Mo  Mo23  1  3.15417075  3.08966232  0.07699925  1
  Mo  Mo24  1  4.79254498  4.67080379  1.53877374  1
  Mo  Mo25  1  3.12945322  3.07802166  3.15748642  1
  Mo  Mo26  1  4.75768422  4.82814469  4.79192725  1
  Mo  Mo27  1  3.11000871  3.21896302  6.40349037  1
  Mo  Mo28  1  4.67317182  4.78057403  7.88145307  1
  Mo  Mo29  1  3.13153553  6.28692056  -0.04605947  1
  Mo  Mo30  1  4.78051819  7.87101509  1.47161381  1
  Mo  Mo31  1  3.19712693  6.34978419  3.20057724  1
  Mo  Mo32  1  4.80988350  7.92131431  4.82253069  1
  Mo  Mo33  1  3.19020386  6.35671658  6.24000866  1
  Mo  Mo34  1  4.84865272  7.90413213  7.94238865  1
  Mo  Mo35  1  6.41292796  0.02182413  -0.03648433  1
  Mo  Mo36  1  7.85017084  1.59761384  1.67502312  1
  Mo  Mo37  1  6.11883904  -0.02774515  3.07271672  1
  Mo  Mo38  1  7.92947777  1.60972523  4.85040380  1
  Mo  Mo39  1  6.34042118  -0.03898883  6.36591435  1
  Mo  Mo40  1  7.83703828  1.61478455  7.84698366  1
  Mo  Mo41  1  6.27202771  3.13786437  -0.11806635  1
  Mo  Mo42  1  7.92351028  4.74844549  1.51974076  1
  Mo  Mo43  1  6.15304125  3.18159194  3.10213680  1
  Mo  Mo44  1  7.93566949  4.74499490  4.75470545  1
  Mo  Mo45  1  6.29550043  3.15766810  6.26755741  1
  Mo  Mo46  1  7.84585405  4.69479806  7.89635816  1
  Mo  Mo47  1  6.35636781  6.26139631  -0.08765822  1
  Mo  Mo48  1  7.91454521  7.90267116  1.51806051  1
  Mo  Mo49  1  6.33802952  6.37828927  3.03344733  1
  Mo  Mo50  1  7.99809224  7.95823656  4.80036925  1
  Mo  Mo51  1  6.33414638  6.30453171  6.32090045  1
  Mo  Mo52  1  8.00299427  7.88372236  7.96073211  1
