# generated using pymatgen
data_Mo
_symmetry_space_group_name_H-M   'P 1'
_cell_length_a   9.46603805
_cell_length_b   9.46603785
_cell_length_c   9.46603779
_cell_angle_alpha   90.00000282
_cell_angle_beta   89.99999931
_cell_angle_gamma   89.99999840
_symmetry_Int_Tables_number   1
_chemical_formula_structural   Mo
_chemical_formula_sum   Mo53
_cell_volume   848.21259331
_cell_formula_units_Z   53
loop_
 _symmetry_equiv_pos_site_id
 _symmetry_equiv_pos_as_xyz
  1  'x, y, z'
loop_
 _atom_site_type_symbol
 _atom_site_label
 _atom_site_symmetry_multiplicity
 _atom_site_fract_x
 _atom_site_fract_y
 _atom_site_fract_z
 _atom_site_occupancy
  Mo  Mo0  1  1.56777426  1.56423061  1.56651556  1
  Mo  Mo1  1  -0.09085114  0.07843285  3.16032449  1
  Mo  Mo2  1  1.53766611  1.55767807  4.82938513  1
  Mo  Mo3  1  -0.05304373  0.02411546  6.26355401  1
  Mo  Mo4  1  1.52358337  1.45266146  7.97497969  1
  Mo  Mo5  1  -0.09776917  3.15873220  -0.01815127  1
  Mo  Mo6  1  1.62419849  4.65801493  1.40498395  1
  Mo  Mo7  1  0.04625608  3.18156340  3.10352849  1
  Mo  Mo8  1  1.53502851  4.81130170  4.74802224  1
  Mo  Mo9  1  0.01992347  3.22769259  6.33203961  1
  Mo  Mo10  1  1.64553832  4.58541833  7.89325683  1
  Mo  Mo11  1  -0.05113000  6.36995968  0.05808802  1
  Mo  Mo12  1  1.60733141  7.84045790  1.58055256  1
  Mo  Mo13  1  -0.06378875  6.36408836  3.14275324  1
  Mo  Mo14  1  1.63526973  7.95201664  4.75861991  1
  Mo  Mo15  1  -0.02447275  6.35482188  6.22702695  1
  Mo  Mo16  1  1.58056572  7.85676010  7.81346565  1
  Mo  Mo17  1  3.15863424  0.00723583  -0.03228497  1
  Mo  Mo18  1  4.73640963  1.49149565  1.61011135  1
  Mo  Mo19  1  3.10419388  -0.05829293  3.14675209  1
  Mo  Mo20  1  4.76622231  1.47376048  4.79431102  1
  Mo  Mo21  1  3.15105236  0.06131006  6.29540581  1
  Mo  Mo22  1  4.74427733  1.57041613  7.85531486  1
  Mo  Mo23  1  3.22049630  3.11986292  0.05533093  1
  Mo  Mo24  1  4.76516256  4.67808938  1.51175720  1
  Mo  Mo25  1  3.18718896  3.16959378  3.28171760  1
  Mo  Mo26  1  4.71528035  4.81436915  4.73204136  1
  Mo  Mo27  1  3.13853600  3.19395666  6.33545443  1
  Mo  Mo28  1  4.67939689  4.76904300  7.96639892  1
  Mo  Mo29  1  3.14002143  6.27781511  0.06790591  1
  Mo  Mo30  1  4.85823827  7.83529182  1.46646206  1
  Mo  Mo31  1  3.08233758  6.34264047  3.23127243  1
  Mo  Mo32  1  4.86370163  7.95435334  4.78348022  1
  Mo  Mo33  1  3.09963540  6.31185964  6.32926287  1
  Mo  Mo34  1  4.83881488  7.79779435  7.93349214  1
  Mo  Mo35  1  6.37441068  -0.03205695  0.02885985  1
  Mo  Mo36  1  7.87731703  1.63915560  1.68627171  1
  Mo  Mo37  1  6.20086831  -0.05601462  3.08305498  1
  Mo  Mo38  1  7.84813310  1.65196104  4.81944597  1
  Mo  Mo39  1  6.30460668  0.04695673  6.32160384  1
  Mo  Mo40  1  7.93660902  1.53726625  7.83953724  1
  Mo  Mo41  1  6.30984823  3.08462955  -0.07991094  1
  Mo  Mo42  1  7.93162484  4.76121988  1.57493650  1
  Mo  Mo43  1  6.21816291  3.09763410  3.12512809  1
  Mo  Mo44  1  7.87200831  4.80627201  4.70965246  1
  Mo  Mo45  1  6.30435994  3.16070846  6.31153906  1
  Mo  Mo46  1  7.81114503  4.72180363  7.88342657  1
  Mo  Mo47  1  6.34823174  6.20712261  -0.06913567  1
  Mo  Mo48  1  8.00410230  7.94701767  1.55987855  1
  Mo  Mo49  1  6.27353182  6.39581854  3.03606178  1
  Mo  Mo50  1  7.95741513  7.94576537  4.71104690  1
  Mo  Mo51  1  6.22586384  6.27399552  6.34184765  1
  Mo  Mo52  1  7.99594535  7.94805703  7.89947442  1
