# generated using pymatgen
data_Mo
_symmetry_space_group_name_H-M   'P 1'
_cell_length_a   9.46603805
_cell_length_b   9.46603785
_cell_length_c   9.46603779
_cell_angle_alpha   90.00000282
_cell_angle_beta   89.99999931
_cell_angle_gamma   89.99999840
_symmetry_Int_Tables_number   1
_chemical_formula_structural   Mo
_chemical_formula_sum   Mo53
_cell_volume   848.21259331
_cell_formula_units_Z   53
loop_
 _symmetry_equiv_pos_site_id
 _symmetry_equiv_pos_as_xyz
  1  'x, y, z'
loop_
 _atom_site_type_symbol
 _atom_site_label
 _atom_site_symmetry_multiplicity
 _atom_site_fract_x
 _atom_site_fract_y
 _atom_site_fract_z
 _atom_site_occupancy
  Mo  Mo0  1  1.53665423  1.51732990  1.58756466  1
  Mo  Mo1  1  0.01281122  0.11184107  3.15565797  1
  Mo  Mo2  1  1.55500647  1.62559205  4.85924829  1
  Mo  Mo3  1  -0.06192214  -0.00486236  6.30724057  1
  Mo  Mo4  1  1.57135755  1.38594109  7.94368234  1
  Mo  Mo5  1  -0.11509577  3.03020539  -0.02548277  1
  Mo  Mo6  1  1.59380138  4.75612697  1.37867565  1
  Mo  Mo7  1  0.08641318  3.23520084  3.12561441  1
  Mo  Mo8  1  1.53408387  4.73916093  4.72488708  1
  Mo  Mo9  1  0.05812274  3.22692402  6.34316340  1
  Mo  Mo10  1  1.52112274  4.66833102  7.81244286  1
  Mo  Mo11  1  -0.00654912  6.42161586  -0.02116385  1
  Mo  Mo12  1  1.56607231  7.87151506  1.60956452  1
  Mo  Mo13  1  -0.13076896  6.37361749  3.14835583  1
  Mo  Mo14  1  1.68857479  7.91654321  4.69384434  1
  Mo  Mo15  1  0.06940483  6.36723191  6.29879421  1
  Mo  Mo16  1  1.58198527  7.84591627  7.82840292  1
  Mo  Mo17  1  3.06579793  -0.08603280  0.03521863  1
  Mo  Mo18  1  4.62513636  1.52569208  1.60089017  1
  Mo  Mo19  1  3.17220975  -0.00329513  3.18340574  1
  Mo  Mo20  1  4.74202854  1.57692759  4.79964475  1
  Mo  Mo21  1  3.18684722  0.00440366  6.21729722  1
  Mo  Mo22  1  4.80545392  1.60565352  7.81423155  1
  Mo  Mo23  1  3.22955471  3.11305344  0.00261952  1
  Mo  Mo24  1  4.73345880  4.71267882  1.57421288  1
  Mo  Mo25  1  3.19916354  3.24162613  3.32587143  1
  Mo  Mo26  1  4.69432419  4.74683094  4.67214611  1
  Mo  Mo27  1  3.19156989  3.13268757  6.23657249  1
  Mo  Mo28  1  4.74981079  4.66645065  7.96028822  1
  Mo  Mo29  1  3.14026026  6.30410853  0.11727801  1
  Mo  Mo30  1  4.83028919  7.84006155  1.49223947  1
  Mo  Mo31  1  3.02793912  6.31094622  3.19604665  1
  Mo  Mo32  1  4.80530690  7.90466959  4.70734182  1
  Mo  Mo33  1  3.05420968  6.31321798  6.40275642  1
  Mo  Mo34  1  4.76595336  7.82205087  7.88303972  1
  Mo  Mo35  1  6.33927459  -0.05755063  0.02243353  1
  Mo  Mo36  1  7.90548920  1.63595045  1.61695277  1
  Mo  Mo37  1  6.38507295  -0.01331303  3.15934502  1
  Mo  Mo38  1  7.80551922  1.66783928  4.71695324  1
  Mo  Mo39  1  6.29057184  0.05252320  6.26163436  1
  Mo  Mo40  1  8.00794244  1.48677595  7.90538171  1
  Mo  Mo41  1  6.35417241  3.06127543  0.04326191  1
  Mo  Mo42  1  7.93351459  4.75417245  1.61490031  1
  Mo  Mo43  1  6.33533443  3.11475173  3.20234234  1
  Mo  Mo44  1  7.80428537  4.82792719  4.66515229  1
  Mo  Mo45  1  6.26211588  3.20561859  6.31990530  1
  Mo  Mo46  1  7.89547313  4.75387341  7.86802193  1
  Mo  Mo47  1  6.31206094  6.25331707  0.03980163  1
  Mo  Mo48  1  8.03732400  7.95882603  1.56735557  1
  Mo  Mo49  1  6.22473065  6.28709577  3.17442232  1
  Mo  Mo50  1  7.86374226  7.91917204  4.66130850  1
  Mo  Mo51  1  6.20124051  6.29363643  6.29315198  1
  Mo  Mo52  1  7.94761107  7.96400001  7.86193230  1
