# generated using pymatgen
data_Mo
_symmetry_space_group_name_H-M   'P 1'
_cell_length_a   9.46603805
_cell_length_b   9.46603785
_cell_length_c   9.46603779
_cell_angle_alpha   90.00000282
_cell_angle_beta   89.99999931
_cell_angle_gamma   89.99999840
_symmetry_Int_Tables_number   1
_chemical_formula_structural   Mo
_chemical_formula_sum   Mo53
_cell_volume   848.21259331
_cell_formula_units_Z   53
loop_
 _symmetry_equiv_pos_site_id
 _symmetry_equiv_pos_as_xyz
  1  'x, y, z'
loop_
 _atom_site_type_symbol
 _atom_site_label
 _atom_site_symmetry_multiplicity
 _atom_site_fract_x
 _atom_site_fract_y
 _atom_site_fract_z
 _atom_site_occupancy
  Mo  Mo0  1  1.57185159  1.53045300  1.55045184  1
  Mo  Mo1  1  0.13402607  0.07794730  3.19917874  1
  Mo  Mo2  1  1.55576716  1.62407132  4.77520594  1
  Mo  Mo3  1  0.00309127  -0.01930188  6.32346983  1
  Mo  Mo4  1  1.59621377  1.41584498  7.90590435  1
  Mo  Mo5  1  0.05540534  2.99815488  -0.02533918  1
  Mo  Mo6  1  1.50351034  4.80689131  1.45603543  1
  Mo  Mo7  1  0.04191352  3.25672211  3.19894965  1
  Mo  Mo8  1  1.53408389  4.69567365  4.67840532  1
  Mo  Mo9  1  -0.01479828  3.14552915  6.28190860  1
  Mo  Mo10  1  1.44396633  4.76874592  7.85411356  1
  Mo  Mo11  1  0.01351651  6.39437964  -0.09541294  1
  Mo  Mo12  1  1.53215214  7.94113051  1.59490299  1
  Mo  Mo13  1  -0.07660010  6.35710130  3.19535073  1
  Mo  Mo14  1  1.61209231  7.86767999  4.66120897  1
  Mo  Mo15  1  -0.00274917  6.35173250  6.32520631  1
  Mo  Mo16  1  1.61068434  7.89058234  7.89272024  1
  Mo  Mo17  1  3.04689044  -0.10817734  0.08279469  1
  Mo  Mo18  1  4.63162889  1.56165919  1.53274091  1
  Mo  Mo19  1  3.23171529  0.07802333  3.21914246  1
  Mo  Mo20  1  4.72019706  1.67181959  4.68495730  1
  Mo  Mo21  1  3.20552395  -0.06585560  6.24828550  1
  Mo  Mo22  1  4.79196156  1.54617563  7.89983984  1
  Mo  Mo23  1  3.16138124  3.08358101  -0.03323122  1
  Mo  Mo24  1  4.71409982  4.72804281  1.62510111  1
  Mo  Mo25  1  3.13788797  3.21278561  3.19027081  1
  Mo  Mo26  1  4.68167037  4.72255456  4.71618107  1
  Mo  Mo27  1  3.20658957  3.10675890  6.27761254  1
  Mo  Mo28  1  4.80270176  4.61590769  7.90922714  1
  Mo  Mo29  1  3.14277896  6.31480922  0.05921897  1
  Mo  Mo30  1  4.73600285  7.89613969  1.57104379  1
  Mo  Mo31  1  3.08655841  6.28675016  3.15618817  1
  Mo  Mo32  1  4.68506585  7.83756033  4.62462510  1
  Mo  Mo33  1  3.13441494  6.29638232  6.38444045  1
  Mo  Mo34  1  4.69452932  7.92532011  7.84544046  1
  Mo  Mo35  1  6.30326942  -0.03177040  -0.01859517  1
  Mo  Mo36  1  7.90110434  1.57601579  1.52893316  1
  Mo  Mo37  1  6.46201854  0.06718197  3.20457953  1
  Mo  Mo38  1  7.88692848  1.63307417  4.68797409  1
  Mo  Mo39  1  6.29750902  0.00749474  6.22784294  1
  Mo  Mo40  1  7.95701540  1.47686504  7.95213518  1
  Mo  Mo41  1  6.36772862  3.08878377  0.15721034  1
  Mo  Mo42  1  7.92054941  4.74524636  1.54124313  1
  Mo  Mo43  1  6.38492099  3.20063789  3.23680214  1
  Mo  Mo44  1  7.84121778  4.77803228  4.70498427  1
  Mo  Mo45  1  6.29870753  3.23616489  6.33680566  1
  Mo  Mo46  1  7.99521237  4.77223345  7.88173232  1
  Mo  Mo47  1  6.29640035  6.33094228  0.15607951  1
  Mo  Mo48  1  7.96181393  7.93029615  1.51428629  1
  Mo  Mo49  1  6.22158287  6.20897915  3.28689574  1
  Mo  Mo50  1  7.85367517  7.90032284  4.69451613  1
  Mo  Mo51  1  6.25729158  6.34606245  6.27514671  1
  Mo  Mo52  1  7.85319319  7.90571538  7.85113877  1
