# generated using pymatgen
data_Mo
_symmetry_space_group_name_H-M   'P 1'
_cell_length_a   9.46603805
_cell_length_b   9.46603785
_cell_length_c   9.46603779
_cell_angle_alpha   90.00000282
_cell_angle_beta   89.99999931
_cell_angle_gamma   89.99999840
_symmetry_Int_Tables_number   1
_chemical_formula_structural   Mo
_chemical_formula_sum   Mo53
_cell_volume   848.21259331
_cell_formula_units_Z   53
loop_
 _symmetry_equiv_pos_site_id
 _symmetry_equiv_pos_as_xyz
  1  'x, y, z'
loop_
 _atom_site_type_symbol
 _atom_site_label
 _atom_site_symmetry_multiplicity
 _atom_site_fract_x
 _atom_site_fract_y
 _atom_site_fract_z
 _atom_site_occupancy
  Mo  Mo0  1  1.60889929  1.61216457  1.50735451  1
  Mo  Mo1  1  0.13996722  -0.01033919  3.23944461  1
  Mo  Mo2  1  1.57802458  1.56257746  4.66989053  1
  Mo  Mo3  1  0.07128706  -0.02801959  6.31590213  1
  Mo  Mo4  1  1.59058703  1.52633175  7.85332420  1
  Mo  Mo5  1  0.18912098  3.07749758  -0.01535015  1
  Mo  Mo6  1  1.45077875  4.79649643  1.55425951  1
  Mo  Mo7  1  -0.03055692  3.19153947  3.23484316  1
  Mo  Mo8  1  1.52867891  4.73325845  4.69029911  1
  Mo  Mo9  1  -0.08067184  3.05222719  6.24485827  1
  Mo  Mo10  1  1.51541353  4.79194532  7.92663346  1
  Mo  Mo11  1  -0.01646831  6.35302430  -0.04867598  1
  Mo  Mo12  1  1.48600109  7.96444120  1.55223039  1
  Mo  Mo13  1  0.04087055  6.33431255  3.22127213  1
  Mo  Mo14  1  1.49471324  7.84485224  4.69179608  1
  Mo  Mo15  1  -0.10834657  6.32037706  6.28359212  1
  Mo  Mo16  1  1.59892205  7.95339107  7.92970573  1
  Mo  Mo17  1  3.13213000  -0.02331101  0.04789620  1
  Mo  Mo18  1  4.74531790  1.61222488  1.46376205  1
  Mo  Mo19  1  3.24026729  0.09579368  3.22028465  1
  Mo  Mo20  1  4.74431495  1.65547623  4.59474946  1
  Mo  Mo21  1  3.20836415  -0.07497511  6.31116409  1
  Mo  Mo22  1  4.72703672  1.46580343  7.98071086  1
  Mo  Mo23  1  3.10559958  3.09271492  -0.03607622  1
  Mo  Mo24  1  4.68216714  4.72419717  1.58649111  1
  Mo  Mo25  1  3.07268338  3.14149195  3.01044395  1
  Mo  Mo26  1  4.65812250  4.71921457  4.83306001  1
  Mo  Mo27  1  3.15633236  3.12306528  6.39051664  1
  Mo  Mo28  1  4.79512878  4.68801555  7.91650840  1
  Mo  Mo29  1  3.16266356  6.27944985  -0.02605091  1
  Mo  Mo30  1  4.63895815  7.95456302  1.62986270  1
  Mo  Mo31  1  3.17981401  6.28495134  3.14321718  1
  Mo  Mo32  1  4.61829305  7.85830187  4.62845706  1
  Mo  Mo33  1  3.22747900  6.23618659  6.29916077  1
  Mo  Mo34  1  4.68001118  7.97493593  7.86283870  1
  Mo  Mo35  1  6.29232105  0.00839217  -0.02506118  1
  Mo  Mo36  1  7.91165057  1.51365850  1.46913580  1
  Mo  Mo37  1  6.40365814  0.10588300  3.19610135  1
  Mo  Mo38  1  7.98880563  1.54576789  4.74290923  1
  Mo  Mo39  1  6.30571386  0.00527697  6.22435786  1
  Mo  Mo40  1  7.85654717  1.49307475  7.94223668  1
  Mo  Mo41  1  6.35435759  3.17518739  0.14960533  1
  Mo  Mo42  1  7.90801190  4.74243972  1.42015308  1
  Mo  Mo43  1  6.36080676  3.25350920  3.21080882  1
  Mo  Mo44  1  7.94464099  4.70583227  4.80477572  1
  Mo  Mo45  1  6.38891686  3.17658396  6.37045589  1
  Mo  Mo46  1  8.00407456  4.74533524  7.93239245  1
  Mo  Mo47  1  6.29261298  6.36860803  0.18390049  1
  Mo  Mo48  1  7.83919864  7.88370593  1.46766443  1
  Mo  Mo49  1  6.29365018  6.26871278  3.26152639  1
  Mo  Mo50  1  7.91689391  7.88213310  4.73189865  1
  Mo  Mo51  1  6.32077737  6.36787286  6.33625642  1
  Mo  Mo52  1  7.77132173  7.85970157  7.85835624  1
