# generated using pymatgen
data_Mo
_symmetry_space_group_name_H-M   'P 1'
_cell_length_a   9.46603805
_cell_length_b   9.46603785
_cell_length_c   9.46603779
_cell_angle_alpha   90.00000282
_cell_angle_beta   89.99999931
_cell_angle_gamma   89.99999840
_symmetry_Int_Tables_number   1
_chemical_formula_structural   Mo
_chemical_formula_sum   Mo53
_cell_volume   848.21259331
_cell_formula_units_Z   53
loop_
 _symmetry_equiv_pos_site_id
 _symmetry_equiv_pos_as_xyz
  1  'x, y, z'
loop_
 _atom_site_type_symbol
 _atom_site_label
 _atom_site_symmetry_multiplicity
 _atom_site_fract_x
 _atom_site_fract_y
 _atom_site_fract_z
 _atom_site_occupancy
  Mo  Mo0  1  1.49487510  1.56030546  1.50791629  1
  Mo  Mo1  1  -0.07085990  -0.08414580  3.00625102  1
  Mo  Mo2  1  1.56638666  1.55044437  4.70934102  1
  Mo  Mo3  1  -0.07567861  -0.00728106  6.34146889  1
  Mo  Mo4  1  1.57125709  1.60264845  7.94366780  1
  Mo  Mo5  1  -0.13089290  3.19119916  -0.00286816  1
  Mo  Mo6  1  1.64748567  4.71036309  1.56633620  1
  Mo  Mo7  1  0.02468327  3.04516851  3.14894101  1
  Mo  Mo8  1  1.62800139  4.66571913  4.76662746  1
  Mo  Mo9  1  0.09400534  3.21825881  6.37044123  1
  Mo  Mo10  1  1.54636363  4.75845793  7.94386617  1
  Mo  Mo11  1  0.02057968  6.34838737  -0.00968454  1
  Mo  Mo12  1  1.59569203  7.91628050  1.54032657  1
  Mo  Mo13  1  -0.01687768  6.19065459  3.15849583  1
  Mo  Mo14  1  1.62484800  7.94864838  4.75558040  1
  Mo  Mo15  1  0.17860461  6.26546396  6.35585538  1
  Mo  Mo16  1  1.46136936  7.91041125  7.95359739  1
  Mo  Mo17  1  3.05782982  0.04667239  -0.03863480  1
  Mo  Mo18  1  4.75585199  1.61605165  1.58591948  1
  Mo  Mo19  1  3.05703067  -0.08541443  3.07669399  1
  Mo  Mo20  1  4.76352946  1.53442717  4.80966834  1
  Mo  Mo21  1  3.10280762  0.08278388  6.28796564  1
  Mo  Mo22  1  4.75640078  1.65589291  7.83073956  1
  Mo  Mo23  1  3.19359771  3.23097061  0.03069911  1
  Mo  Mo24  1  4.79062878  4.82846829  1.61153583  1
  Mo  Mo25  1  3.27347425  3.20040882  3.32536080  1
  Mo  Mo26  1  4.88012000  4.75564542  4.67989523  1
  Mo  Mo27  1  3.21920581  3.18996459  6.16279214  1
  Mo  Mo28  1  4.67891480  4.74187802  7.83559706  1
  Mo  Mo29  1  3.11486582  6.39820710  0.03872654  1
  Mo  Mo30  1  4.76328012  7.92730988  1.52656697  1
  Mo  Mo31  1  3.16653999  6.32023004  3.21802061  1
  Mo  Mo32  1  4.83786338  7.92343979  4.87532148  1
  Mo  Mo33  1  3.11930692  6.42608967  6.31187975  1
  Mo  Mo34  1  4.69328054  7.86827117  7.97231511  1
  Mo  Mo35  1  6.34146664  0.02279448  -0.02592271  1
  Mo  Mo36  1  7.92934643  1.57075759  1.52260213  1
  Mo  Mo37  1  6.21461967  -0.03947781  3.11029101  1
  Mo  Mo38  1  7.88608940  1.47737802  4.65345794  1
  Mo  Mo39  1  6.29266008  -0.05734893  6.38338564  1
  Mo  Mo40  1  7.94460190  1.54207820  7.89238680  1
  Mo  Mo41  1  6.25356870  3.14927747  -0.10774228  1
  Mo  Mo42  1  7.83380054  4.73822469  1.74243633  1
  Mo  Mo43  1  6.31469627  3.12210200  3.11416202  1
  Mo  Mo44  1  7.87569408  4.62504208  4.72984586  1
  Mo  Mo45  1  6.26549140  3.12027392  6.20363243  1
  Mo  Mo46  1  7.84596668  4.76900848  7.87401033  1
  Mo  Mo47  1  6.33337555  6.31549884  -0.14094813  1
  Mo  Mo48  1  7.85403349  7.92882728  1.66711953  1
  Mo  Mo49  1  6.28925218  6.31093625  3.13949846  1
  Mo  Mo50  1  7.83539169  7.81527438  4.79415118  1
  Mo  Mo51  1  6.33827429  6.22356030  6.23839574  1
  Mo  Mo52  1  7.95316413  7.89936502  7.99786517  1
