# generated using pymatgen
data_Mo
_symmetry_space_group_name_H-M   'P 1'
_cell_length_a   9.49048941
_cell_length_b   12.65398587
_cell_length_c   15.81748234
_cell_angle_alpha   90.00000000
_cell_angle_beta   90.00000000
_cell_angle_gamma   90.00000000
_symmetry_Int_Tables_number   1
_chemical_formula_structural   Mo
_chemical_formula_sum   Mo118
_cell_volume   1899.56129654
_cell_formula_units_Z   118
loop_
 _symmetry_equiv_pos_site_id
 _symmetry_equiv_pos_as_xyz
  1  'x, y, z'
loop_
 _atom_site_type_symbol
 _atom_site_label
 _atom_site_symmetry_multiplicity
 _atom_site_fract_x
 _atom_site_fract_y
 _atom_site_fract_z
 _atom_site_occupancy
  Mo  Mo0  1  -0.10341833  -0.02070948  2.86692612  1
  Mo  Mo1  1  0.20627665  3.13344027  0.05625016  1
  Mo  Mo2  1  1.60055446  4.74674404  1.48540358  1
  Mo  Mo3  1  0.06723919  3.10605508  3.10977859  1
  Mo  Mo4  1  3.18481482  -0.04955330  -0.01408550  1
  Mo  Mo5  1  3.18904473  -0.03319904  3.03485158  1
  Mo  Mo6  1  3.06253466  3.26610655  -0.17192700  1
  Mo  Mo7  1  3.12228959  3.07998056  3.04612142  1
  Mo  Mo8  1  4.75076543  1.63831584  1.57579061  1
  Mo  Mo9  1  4.78173513  4.70072142  1.59473585  1
  Mo  Mo10  1  6.27122961  0.07719557  0.11325039  1
  Mo  Mo11  1  7.80761056  1.64632884  1.49113283  1
  Mo  Mo12  1  6.14754941  -0.09526771  3.17115201  1
  Mo  Mo13  1  6.36399969  3.30065082  -0.13059601  1
  Mo  Mo14  1  7.91561229  4.76728790  1.55995327  1
  Mo  Mo15  1  6.30817679  3.34898698  3.06378576  1
  Mo  Mo16  1  1.63125606  1.67740776  4.60855703  1
  Mo  Mo17  1  0.20930908  -0.05325964  6.29779067  1
  Mo  Mo18  1  1.67283032  4.72480013  4.57974201  1
  Mo  Mo19  1  0.04819050  3.08960212  6.34595803  1
  Mo  Mo20  1  3.11361133  -0.12063586  6.12648922  1
  Mo  Mo21  1  3.14841376  3.29615282  6.20047294  1
  Mo  Mo22  1  4.69198358  1.69793176  4.74579082  1
  Mo  Mo23  1  4.73970412  4.75139098  4.67471641  1
  Mo  Mo24  1  8.12345381  1.59889625  4.62267659  1
  Mo  Mo25  1  6.33840178  0.07164068  6.35284901  1
  Mo  Mo26  1  7.92412176  4.69776247  4.67973074  1
  Mo  Mo27  1  6.37478298  3.10337415  6.22965535  1
  Mo  Mo28  1  1.62279624  1.53932998  7.99153224  1
  Mo  Mo29  1  0.08785048  -0.06883822  9.44897472  1
  Mo  Mo30  1  1.63042199  1.51394058  11.14730366  1
  Mo  Mo31  1  1.66612800  4.71043234  7.92870913  1
  Mo  Mo32  1  0.22586531  3.23672555  9.46354110  1
  Mo  Mo33  1  1.52901336  4.63132507  11.10897630  1
  Mo  Mo34  1  3.19552861  0.01805526  9.52626492  1
  Mo  Mo35  1  3.22342020  3.07167961  9.47042215  1
  Mo  Mo36  1  4.64309137  1.52747431  7.78939017  1
  Mo  Mo37  1  4.87234061  1.53494120  10.84564947  1
  Mo  Mo38  1  4.72923856  4.83020037  7.79552652  1
  Mo  Mo39  1  4.62829661  4.67381283  11.06915954  1
  Mo  Mo40  1  7.97213025  1.55345947  7.86902370  1
  Mo  Mo41  1  6.45905352  -0.09522750  9.42673294  1
  Mo  Mo42  1  7.83250349  1.62410692  11.00640593  1
  Mo  Mo43  1  8.04291671  4.72518738  8.01936425  1
  Mo  Mo44  1  6.39509847  3.19348316  9.44763426  1
  Mo  Mo45  1  7.85497365  4.67436888  11.15197046  1
  Mo  Mo46  1  -0.13939839  -0.02686748  12.77204605  1
  Mo  Mo47  1  1.56136324  1.45590343  14.28786329  1
  Mo  Mo48  1  0.11612197  2.91530200  12.74344947  1
  Mo  Mo49  1  1.50004940  4.68428832  14.19264065  1
  Mo  Mo50  1  3.12403716  0.03753390  12.66828416  1
  Mo  Mo51  1  3.12478186  3.17981042  12.68109305  1
  Mo  Mo52  1  4.66197703  1.61550808  14.24169173  1
  Mo  Mo53  1  4.63880188  4.74056797  14.38775272  1
  Mo  Mo54  1  6.39797798  0.14929797  12.68814290  1
  Mo  Mo55  1  7.89288397  1.56076748  14.56111948  1
  Mo  Mo56  1  6.22885107  3.28260916  12.63839677  1
  Mo  Mo57  1  7.87880413  4.71440409  14.28677106  1
  Mo  Mo58  1  -0.09419653  6.28580592  0.05844297  1
  Mo  Mo59  1  1.52228125  7.97933897  1.57051812  1
  Mo  Mo60  1  0.05999125  6.36763384  3.02429667  1
  Mo  Mo61  1  -0.03713246  9.50392384  0.01431229  1
  Mo  Mo62  1  1.51076319  11.20826997  1.53912146  1
  Mo  Mo63  1  -0.04834271  9.52146903  3.10950057  1
  Mo  Mo64  1  3.14791729  6.28880459  0.06340606  1
  Mo  Mo65  1  3.08802335  6.29694667  3.04037231  1
  Mo  Mo66  1  3.13113666  9.65197071  0.01672096  1
  Mo  Mo67  1  3.25714033  9.41388434  3.19295690  1
  Mo  Mo68  1  4.75637552  8.01182786  1.61453501  1
  Mo  Mo69  1  4.77632362  11.00362571  1.62868435  1
  Mo  Mo70  1  6.22129482  6.34455799  0.10076123  1
  Mo  Mo71  1  7.88599299  7.94214356  1.61267821  1
  Mo  Mo72  1  6.28757335  6.32422264  3.27535079  1
  Mo  Mo73  1  6.13625972  9.51852994  0.07536489  1
  Mo  Mo74  1  7.83554187  11.17937551  1.55933765  1
  Mo  Mo75  1  6.33537332  9.40405426  3.11750364  1
  Mo  Mo76  1  1.67386298  7.87322382  4.50413980  1
  Mo  Mo77  1  0.12426008  6.34086426  6.44818087  1
  Mo  Mo78  1  1.66392368  11.02487456  4.82237603  1
  Mo  Mo79  1  0.07286358  9.48837445  6.41252451  1
  Mo  Mo80  1  3.02438603  6.38464284  6.22723258  1
  Mo  Mo81  1  3.31258592  9.43535163  6.38352083  1
  Mo  Mo82  1  4.84840090  7.95878518  4.73239610  1
  Mo  Mo83  1  4.84841083  11.12506187  4.76850921  1
  Mo  Mo84  1  8.00814407  7.74758754  4.78637214  1
  Mo  Mo85  1  6.20696674  6.17029759  6.24717075  1
  Mo  Mo86  1  7.99303157  11.07601080  4.75990045  1
  Mo  Mo87  1  6.48885156  9.50773672  6.34508424  1
  Mo  Mo88  1  1.64179112  7.97420549  7.93861864  1
  Mo  Mo89  1  -0.14397086  6.28054336  9.55113798  1
  Mo  Mo90  1  1.43390988  7.86547892  11.08991191  1
  Mo  Mo91  1  1.68769458  11.04602411  8.05239926  1
  Mo  Mo92  1  -0.12902319  9.38652893  9.50024997  1
  Mo  Mo93  1  1.53721502  11.09308931  11.04691775  1
  Mo  Mo94  1  3.13578360  6.32558297  9.57856289  1
  Mo  Mo95  1  3.19544917  9.63705680  9.49277316  1
  Mo  Mo96  1  4.81426374  7.82287200  7.93710937  1
  Mo  Mo97  1  4.72555477  7.80094796  11.14780013  1
  Mo  Mo98  1  4.89324192  10.98446203  7.86444626  1
  Mo  Mo99  1  4.85640397  11.30081168  11.25513659  1
  Mo  Mo100  1  7.89996361  7.91886913  7.88511921  1
  Mo  Mo101  1  6.27914332  6.32315027  9.49529522  1
  Mo  Mo102  1  7.84221441  7.94775366  11.13221102  1
  Mo  Mo103  1  8.05746324  11.01335649  7.94569828  1
  Mo  Mo104  1  6.23242564  9.49101566  9.61206458  1
  Mo  Mo105  1  7.93412063  10.96281601  11.12605481  1
  Mo  Mo106  1  -0.00708543  6.41699272  12.73610174  1
  Mo  Mo107  1  1.53492134  8.02408070  14.32172243  1
  Mo  Mo108  1  0.08437649  9.52378257  12.75943576  1
  Mo  Mo109  1  1.39749889  11.23547644  14.25440132  1
  Mo  Mo110  1  2.87505827  6.31946648  12.78614575  1
  Mo  Mo111  1  3.09319655  9.55573528  12.61704863  1
  Mo  Mo112  1  4.70517970  7.82768774  14.07537482  1
  Mo  Mo113  1  4.77410937  11.34390513  14.16255467  1
  Mo  Mo114  1  6.36201382  6.21440384  12.69966096  1
  Mo  Mo115  1  7.82475858  7.86134830  14.28855834  1
  Mo  Mo116  1  6.20277655  9.46505037  12.79637300  1
  Mo  Mo117  1  7.87529906  11.05923017  14.38954001  1
