# generated using pymatgen
data_Mo
_symmetry_space_group_name_H-M   'P 1'
_cell_length_a   9.49048941
_cell_length_b   12.65398587
_cell_length_c   15.81748234
_cell_angle_alpha   90.00000000
_cell_angle_beta   90.00000000
_cell_angle_gamma   90.00000000
_symmetry_Int_Tables_number   1
_chemical_formula_structural   Mo
_chemical_formula_sum   Mo118
_cell_volume   1899.56129654
_cell_formula_units_Z   118
loop_
 _symmetry_equiv_pos_site_id
 _symmetry_equiv_pos_as_xyz
  1  'x, y, z'
loop_
 _atom_site_type_symbol
 _atom_site_label
 _atom_site_symmetry_multiplicity
 _atom_site_fract_x
 _atom_site_fract_y
 _atom_site_fract_z
 _atom_site_occupancy
  Mo  Mo0  1  -0.01140388  -0.00732513  3.08096357  1
  Mo  Mo1  1  -0.04930537  2.99527313  -0.17457119  1
  Mo  Mo2  1  1.53132691  4.54375798  1.48833275  1
  Mo  Mo3  1  0.00882919  3.19382076  3.17086406  1
  Mo  Mo4  1  3.06760857  0.09961042  0.03962046  1
  Mo  Mo5  1  3.12685710  0.00720353  3.13476088  1
  Mo  Mo6  1  3.13843474  3.29128743  -0.01954616  1
  Mo  Mo7  1  3.11588515  3.01337436  3.10577706  1
  Mo  Mo8  1  4.73424296  1.61622300  1.56571231  1
  Mo  Mo9  1  4.73526569  4.82445127  1.65884977  1
  Mo  Mo10  1  6.32971358  0.05622792  -0.01757627  1
  Mo  Mo11  1  7.86559807  1.51487394  1.58638525  1
  Mo  Mo12  1  6.23949535  0.04036496  3.19160651  1
  Mo  Mo13  1  6.40905916  3.12490102  0.09662009  1
  Mo  Mo14  1  7.88321277  4.87087106  1.58340644  1
  Mo  Mo15  1  6.30049146  3.22949697  3.19048449  1
  Mo  Mo16  1  1.61284701  1.51443705  4.80926926  1
  Mo  Mo17  1  0.01711029  0.13067147  6.32152186  1
  Mo  Mo18  1  1.65776747  4.72101705  4.80684650  1
  Mo  Mo19  1  0.07652891  3.27928282  6.41783672  1
  Mo  Mo20  1  3.23297225  0.07909019  6.18098159  1
  Mo  Mo21  1  3.18001894  3.16335746  6.34188699  1
  Mo  Mo22  1  4.73989277  1.65074741  4.67718882  1
  Mo  Mo23  1  4.74276236  4.74415247  4.77359305  1
  Mo  Mo24  1  7.93656326  1.70574617  4.86454605  1
  Mo  Mo25  1  6.36868635  -0.10696411  6.23844284  1
  Mo  Mo26  1  7.94583729  4.72169224  4.65555273  1
  Mo  Mo27  1  6.33746842  3.25213593  6.36327485  1
  Mo  Mo28  1  1.49821247  1.57911695  7.92469766  1
  Mo  Mo29  1  -0.04296139  0.04365685  9.41608865  1
  Mo  Mo30  1  1.42510253  1.62393812  10.94087211  1
  Mo  Mo31  1  1.77552977  4.78568702  7.93621573  1
  Mo  Mo32  1  0.00326635  3.14839390  9.46602344  1
  Mo  Mo33  1  1.49855999  4.69171548  11.14382838  1
  Mo  Mo34  1  3.12509960  -0.03843191  9.46732419  1
  Mo  Mo35  1  3.11274747  3.16756751  9.47544641  1
  Mo  Mo36  1  4.76622546  1.56585132  7.95085162  1
  Mo  Mo37  1  4.86996749  1.54692594  11.05277608  1
  Mo  Mo38  1  4.89615123  4.72777895  7.90471978  1
  Mo  Mo39  1  4.69514111  4.75222505  10.90741014  1
  Mo  Mo40  1  7.88651925  1.67210548  7.85237215  1
  Mo  Mo41  1  6.32485812  0.07174613  9.53458573  1
  Mo  Mo42  1  7.90928729  1.35098973  11.06101745  1
  Mo  Mo43  1  7.93193617  4.87268813  7.93518308  1
  Mo  Mo44  1  6.47434475  3.21987542  9.51896683  1
  Mo  Mo45  1  7.95297650  4.75913589  11.21978804  1
  Mo  Mo46  1  0.08680432  -0.08390276  12.51954224  1
  Mo  Mo47  1  1.60367228  1.53811859  14.26999043  1
  Mo  Mo48  1  -0.06274755  3.01982845  12.69132030  1
  Mo  Mo49  1  1.60840859  4.85555997  14.13425597  1
  Mo  Mo50  1  3.22366844  -0.03414819  12.59738848  1
  Mo  Mo51  1  3.13772976  3.01107075  12.54486213  1
  Mo  Mo52  1  4.62035312  1.71585427  14.18827173  1
  Mo  Mo53  1  4.71391755  4.66655447  14.21954924  1
  Mo  Mo54  1  6.35303767  0.00143850  12.61714792  1
  Mo  Mo55  1  7.96359100  1.33299772  14.24645782  1
  Mo  Mo56  1  6.23232635  3.04063048  12.88762389  1
  Mo  Mo57  1  7.97506935  4.73954525  14.22947861  1
  Mo  Mo58  1  -0.03479459  6.25407166  0.05078375  1
  Mo  Mo59  1  1.49347616  7.88141555  1.64673594  1
  Mo  Mo60  1  -0.06664472  6.27436729  3.30283528  1
  Mo  Mo61  1  0.11285322  9.62362236  0.02856202  1
  Mo  Mo62  1  1.57198767  11.11691979  1.49368467  1
  Mo  Mo63  1  -0.03196353  9.58941569  3.25159975  1
  Mo  Mo64  1  3.09855841  6.24669414  0.03825209  1
  Mo  Mo65  1  3.03619205  6.26133996  3.10412878  1
  Mo  Mo66  1  3.20923113  9.49545409  0.06584203  1
  Mo  Mo67  1  3.02141715  9.56221916  3.22508833  1
  Mo  Mo68  1  4.66238413  7.91769746  1.55945680  1
  Mo  Mo69  1  4.70486197  11.08216701  1.49842098  1
  Mo  Mo70  1  6.38360026  6.35412990  -0.00689482  1
  Mo  Mo71  1  7.83442978  8.04730549  1.57012094  1
  Mo  Mo72  1  6.26081370  6.42506530  3.07990112  1
  Mo  Mo73  1  6.34552114  9.51544191  0.09862046  1
  Mo  Mo74  1  7.85047564  11.20340458  1.71693657  1
  Mo  Mo75  1  6.20594402  9.46693695  3.19133841  1
  Mo  Mo76  1  1.65227653  7.86622362  4.81852343  1
  Mo  Mo77  1  0.15559319  6.32085659  6.44927310  1
  Mo  Mo78  1  1.45649919  11.04761281  4.65669460  1
  Mo  Mo79  1  -0.06953596  9.47279527  6.39259627  1
  Mo  Mo80  1  3.25932479  6.35229296  6.39960640  1
  Mo  Mo81  1  3.18117074  9.57671603  6.42024956  1
  Mo  Mo82  1  4.67094325  7.99814520  4.66649489  1
  Mo  Mo83  1  4.63237758  11.02139928  4.65341791  1
  Mo  Mo84  1  7.92251320  7.96692726  4.73613947  1
  Mo  Mo85  1  6.32714188  6.39455235  6.19571677  1
  Mo  Mo86  1  7.96947911  11.15157329  4.75070585  1
  Mo  Mo87  1  6.26309746  9.49753926  6.29870417  1
  Mo  Mo88  1  1.64443233  7.93499442  8.02432894  1
  Mo  Mo89  1  0.04412690  6.26260099  9.52553014  1
  Mo  Mo90  1  1.59880689  7.70279616  11.08335853  1
  Mo  Mo91  1  1.60126937  11.11503321  7.85792267  1
  Mo  Mo92  1  -0.06961281  9.21561473  9.44096172  1
  Mo  Mo93  1  1.64236702  11.04195307  10.84872758  1
  Mo  Mo94  1  3.17210523  6.14028111  9.57647773  1
  Mo  Mo95  1  3.34706068  9.53361265  9.44824988  1
  Mo  Mo96  1  4.76675171  8.01350593  7.93375325  1
  Mo  Mo97  1  4.80558547  7.95094098  11.13876440  1
  Mo  Mo98  1  4.75465774  11.13131738  7.77945088  1
  Mo  Mo99  1  4.74147154  11.21531982  11.13687782  1
  Mo  Mo100  1  7.81818534  7.85709853  7.87353163  1
  Mo  Mo101  1  6.30983499  6.33601873  9.45366138  1
  Mo  Mo102  1  7.88825689  7.86419803  11.18652466  1
  Mo  Mo103  1  7.99439189  11.06836519  7.87193301  1
  Mo  Mo104  1  6.31351879  9.44998752  9.48508783  1
  Mo  Mo105  1  7.95968876  10.94067352  10.95864568  1
  Mo  Mo106  1  -0.03212826  6.36747497  12.72517944  1
  Mo  Mo107  1  1.60770360  7.84202575  14.31377894  1
  Mo  Mo108  1  0.08697610  9.54316470  12.63512008  1
  Mo  Mo109  1  1.60136866  11.05932946  14.29630325  1
  Mo  Mo110  1  3.19697830  6.28854643  12.79518148  1
  Mo  Mo111  1  3.27364294  9.40611957  12.59301956  1
  Mo  Mo112  1  4.88519914  7.89864300  14.10982973  1
  Mo  Mo113  1  4.68740614  11.08196842  14.24725217  1
  Mo  Mo114  1  6.42382413  6.27883550  12.65209929  1
  Mo  Mo115  1  7.80765028  8.05227018  14.29679972  1
  Mo  Mo116  1  6.27712765  9.42070581  12.62816952  1
  Mo  Mo117  1  7.88225955  11.14045239  14.30553756  1
