# generated using pymatgen
data_Mo
_symmetry_space_group_name_H-M   'P 1'
_cell_length_a   9.49048941
_cell_length_b   12.65398587
_cell_length_c   15.81748234
_cell_angle_alpha   90.00000000
_cell_angle_beta   90.00000000
_cell_angle_gamma   90.00000000
_symmetry_Int_Tables_number   1
_chemical_formula_structural   Mo
_chemical_formula_sum   Mo118
_cell_volume   1899.56129654
_cell_formula_units_Z   118
loop_
 _symmetry_equiv_pos_site_id
 _symmetry_equiv_pos_as_xyz
  1  'x, y, z'
loop_
 _atom_site_type_symbol
 _atom_site_label
 _atom_site_symmetry_multiplicity
 _atom_site_fract_x
 _atom_site_fract_y
 _atom_site_fract_z
 _atom_site_occupancy
  Mo  Mo0  1  0.02765448  0.06023551  2.87672641  1
  Mo  Mo1  1  0.06247230  3.16064674  0.22757614  1
  Mo  Mo2  1  1.54526774  4.82520590  1.64746079  1
  Mo  Mo3  1  -0.05699516  3.24499672  3.06360703  1
  Mo  Mo4  1  3.07251367  -0.05402311  -0.07934548  1
  Mo  Mo5  1  3.18853833  0.02216473  3.07905713  1
  Mo  Mo6  1  3.05920832  3.12908128  -0.16872577  1
  Mo  Mo7  1  3.23075800  3.10763385  3.20755307  1
  Mo  Mo8  1  4.84627602  1.72718368  1.61603434  1
  Mo  Mo9  1  4.73842323  4.68547984  1.54882245  1
  Mo  Mo10  1  6.39914965  0.12660539  0.03788997  1
  Mo  Mo11  1  7.84243286  1.54359960  1.50064516  1
  Mo  Mo12  1  6.30804770  -0.10763335  3.03967726  1
  Mo  Mo13  1  6.29946873  3.23616951  -0.03578405  1
  Mo  Mo14  1  7.76476534  4.86059416  1.63877259  1
  Mo  Mo15  1  6.48125559  3.15946515  3.30145510  1
  Mo  Mo16  1  1.55945680  1.53891294  4.65421226  1
  Mo  Mo17  1  -0.00019203  0.07607792  6.23806552  1
  Mo  Mo18  1  1.61126824  4.78680903  4.60193414  1
  Mo  Mo19  1  0.17687977  3.38629162  6.35317668  1
  Mo  Mo20  1  3.24170017  0.06579586  6.29820770  1
  Mo  Mo21  1  3.14865206  3.10477419  6.43477622  1
  Mo  Mo22  1  4.77441718  1.47364721  4.83879920  1
  Mo  Mo23  1  4.80039241  4.64165161  4.77261004  1
  Mo  Mo24  1  7.97888222  1.69318553  4.73064853  1
  Mo  Mo25  1  6.32985259  0.04728295  6.18917332  1
  Mo  Mo26  1  7.91562222  4.68292799  4.97030375  1
  Mo  Mo27  1  6.46038406  3.06717167  6.36568768  1
  Mo  Mo28  1  1.63558526  1.52247984  7.76625475  1
  Mo  Mo29  1  -0.16725722  -0.09091180  9.49443136  1
  Mo  Mo30  1  1.55870217  1.55915892  10.96122731  1
  Mo  Mo31  1  1.52442600  4.85504365  7.95006720  1
  Mo  Mo32  1  0.06127641  3.17928416  9.46783059  1
  Mo  Mo33  1  1.56155190  4.63645855  11.01325720  1
  Mo  Mo34  1  3.10174573  -0.02069747  9.47498966  1
  Mo  Mo35  1  3.26298873  3.13292395  9.43665237  1
  Mo  Mo36  1  4.74890864  1.59909484  7.91226610  1
  Mo  Mo37  1  4.69320489  1.58317806  11.09418154  1
  Mo  Mo38  1  4.77275898  4.73500752  7.81522639  1
  Mo  Mo39  1  4.78326425  4.66849069  10.97006445  1
  Mo  Mo40  1  8.02364381  1.62782050  8.03304692  1
  Mo  Mo41  1  6.28632225  -0.03132288  9.40180030  1
  Mo  Mo42  1  7.96189307  1.67762621  11.26248432  1
  Mo  Mo43  1  7.78937032  4.79215103  7.86672009  1
  Mo  Mo44  1  6.25344611  3.20455440  9.50044856  1
  Mo  Mo45  1  7.86931165  4.68800190  11.07432281  1
  Mo  Mo46  1  -0.00735666  0.02543427  12.64097840  1
  Mo  Mo47  1  1.50860851  1.42671109  14.38904354  1
  Mo  Mo48  1  0.10322670  3.14165186  12.65100706  1
  Mo  Mo49  1  1.48658518  4.80977566  14.24903946  1
  Mo  Mo50  1  3.10136842  0.06711955  12.70889528  1
  Mo  Mo51  1  3.08345584  3.15781687  12.81841620  1
  Mo  Mo52  1  4.67966123  1.61904294  14.25877024  1
  Mo  Mo53  1  4.91034030  4.76244237  14.33234685  1
  Mo  Mo54  1  6.32140270  -0.00676136  12.70551929  1
  Mo  Mo55  1  8.02843970  1.62789000  14.41466131  1
  Mo  Mo56  1  6.22818580  3.12268677  12.64157416  1
  Mo  Mo57  1  7.84692093  4.73840337  14.11082267  1
  Mo  Mo58  1  -0.09246565  6.38715497  0.06472965  1
  Mo  Mo59  1  1.56909822  7.83896751  1.60828943  1
  Mo  Mo60  1  -0.06105201  6.35053547  3.11086089  1
  Mo  Mo61  1  -0.05592428  9.48198987  0.07500465  1
  Mo  Mo62  1  1.55646806  11.05694641  1.55091755  1
  Mo  Mo63  1  0.05147990  9.47249739  3.31907973  1
  Mo  Mo64  1  3.08942339  6.38001576  0.04369279  1
  Mo  Mo65  1  3.22764018  6.30125602  3.09223340  1
  Mo  Mo66  1  2.99735829  9.30052075  0.08531253  1
  Mo  Mo67  1  3.15887931  9.58017145  3.24146186  1
  Mo  Mo68  1  4.62046234  7.82586074  1.66403290  1
  Mo  Mo69  1  4.66947370  10.98088746  1.53371988  1
  Mo  Mo70  1  6.30911015  6.39491974  -0.03702919  1
  Mo  Mo71  1  8.00827315  8.01589890  1.46001419  1
  Mo  Mo72  1  6.22649781  6.21705498  3.19683928  1
  Mo  Mo73  1  6.38428539  9.50902753  -0.11456405  1
  Mo  Mo74  1  7.85122035  11.05138597  1.48425178  1
  Mo  Mo75  1  6.15203748  9.33916585  3.30565522  1
  Mo  Mo76  1  1.45308349  7.97233877  4.75108317  1
  Mo  Mo77  1  0.08884480  6.41999139  6.39501903  1
  Mo  Mo78  1  1.59927357  11.26625748  4.76056572  1
  Mo  Mo79  1  0.02834636  9.45604443  6.40377674  1
  Mo  Mo80  1  3.20866516  6.31687491  6.32367653  1
  Mo  Mo81  1  3.13548572  9.59305977  6.31257550  1
  Mo  Mo82  1  4.56875020  7.94357339  4.93237356  1
  Mo  Mo83  1  4.67164823  11.00322854  4.67339580  1
  Mo  Mo84  1  7.86976840  7.82229610  4.69948025  1
  Mo  Mo85  1  6.23502714  6.34168840  6.25795404  1
  Mo  Mo86  1  7.90197927  11.09050768  4.70654996  1
  Mo  Mo87  1  6.45831875  9.53696877  6.42481706  1
  Mo  Mo88  1  1.66802451  7.93252201  7.76284898  1
  Mo  Mo89  1  0.04380052  6.46024505  9.47577408  1
  Mo  Mo90  1  1.65760860  7.87161527  11.12615410  1
  Mo  Mo91  1  1.67129127  11.14104816  7.92693177  1
  Mo  Mo92  1  0.07971773  9.46063180  9.46282619  1
  Mo  Mo93  1  1.58382347  10.99895891  10.99617868  1
  Mo  Mo94  1  3.24221649  6.29903184  9.43653322  1
  Mo  Mo95  1  3.12856495  9.39744130  9.44117024  1
  Mo  Mo96  1  4.84902645  7.80634953  7.99060881  1
  Mo  Mo97  1  4.76719853  7.81843357  11.05664853  1
  Mo  Mo98  1  4.72529660  11.10589819  8.04872539  1
  Mo  Mo99  1  4.73057903  11.11523180  11.16050972  1
  Mo  Mo100  1  8.00931573  7.90117499  7.90896955  1
  Mo  Mo101  1  6.35188586  6.24832256  9.58113460  1
  Mo  Mo102  1  7.89131513  7.86646192  11.08276277  1
  Mo  Mo103  1  7.98333058  11.17053838  7.86747472  1
  Mo  Mo104  1  6.26628478  9.45411813  9.48747088  1
  Mo  Mo105  1  7.86586616  11.02129998  11.09457872  1
  Mo  Mo106  1  -0.03571901  6.27658154  12.57872127  1
  Mo  Mo107  1  1.58179788  7.84930398  14.15858292  1
  Mo  Mo108  1  0.00703955  9.41875965  12.71415784  1
  Mo  Mo109  1  1.51058446  11.01861906  14.33621931  1
  Mo  Mo110  1  3.25698146  6.11329309  12.60692067  1
  Mo  Mo111  1  3.28371132  9.56724342  12.58219655  1
  Mo  Mo112  1  4.90738134  8.00813414  14.19403076  1
  Mo  Mo113  1  4.78199329  11.11721767  14.11052478  1
  Mo  Mo114  1  6.33557191  6.40594134  12.62032532  1
  Mo  Mo115  1  7.86769317  7.90004305  14.12392943  1
  Mo  Mo116  1  6.33594923  9.54304555  12.61238182  1
  Mo  Mo117  1  7.89456203  11.11543039  14.32589276  1
