# generated using pymatgen
data_Mo
_symmetry_space_group_name_H-M   'P 1'
_cell_length_a   9.49048941
_cell_length_b   12.65398587
_cell_length_c   15.81748234
_cell_angle_alpha   90.00000000
_cell_angle_beta   90.00000000
_cell_angle_gamma   90.00000000
_symmetry_Int_Tables_number   1
_chemical_formula_structural   Mo
_chemical_formula_sum   Mo118
_cell_volume   1899.56129654
_cell_formula_units_Z   118
loop_
 _symmetry_equiv_pos_site_id
 _symmetry_equiv_pos_as_xyz
  1  'x, y, z'
loop_
 _atom_site_type_symbol
 _atom_site_label
 _atom_site_symmetry_multiplicity
 _atom_site_fract_x
 _atom_site_fract_y
 _atom_site_fract_z
 _atom_site_occupancy
  Mo  Mo0  1  0.03578743  0.08418982  3.06114455  1
  Mo  Mo1  1  0.05554151  3.07013063  -0.08241236  1
  Mo  Mo2  1  1.56779747  4.81007354  1.53583484  1
  Mo  Mo3  1  0.02723020  3.17393223  3.09183622  1
  Mo  Mo4  1  3.22018323  -0.04869729  -0.12546749  1
  Mo  Mo5  1  2.98916656  -0.00164173  3.12111793  1
  Mo  Mo6  1  3.11853629  3.13919931  0.12358885  1
  Mo  Mo7  1  3.21200143  3.12472229  3.11096019  1
  Mo  Mo8  1  4.79801929  1.50414030  1.58971159  1
  Mo  Mo9  1  4.78634235  4.80092860  1.67142035  1
  Mo  Mo10  1  6.27490348  0.05212888  0.05272325  1
  Mo  Mo11  1  7.93003966  1.51701869  1.51112064  1
  Mo  Mo12  1  6.28204269  -0.02789616  3.23593120  1
  Mo  Mo13  1  6.46436574  3.20421680  -0.05281748  1
  Mo  Mo14  1  8.00133252  4.67575899  1.57155077  1
  Mo  Mo15  1  6.31075842  3.27427842  3.06843270  1
  Mo  Mo16  1  1.56766839  1.61029517  4.78765303  1
  Mo  Mo17  1  0.07285713  0.07623014  6.34830136  1
  Mo  Mo18  1  1.59340531  4.81123528  4.74608870  1
  Mo  Mo19  1  -0.08098372  3.29044343  6.42650506  1
  Mo  Mo20  1  3.00942247  0.08810467  6.44094236  1
  Mo  Mo21  1  3.10937149  3.19698822  6.29238909  1
  Mo  Mo22  1  4.63323151  1.54814725  4.55112557  1
  Mo  Mo23  1  4.79759233  4.76605666  4.79454401  1
  Mo  Mo24  1  7.95394958  1.66938483  4.71275581  1
  Mo  Mo25  1  6.13389653  -0.13425696  6.34447855  1
  Mo  Mo26  1  7.89939764  4.81947665  4.70176400  1
  Mo  Mo27  1  6.39370836  3.20785095  6.28636197  1
  Mo  Mo28  1  1.56408389  1.68046601  8.01010015  1
  Mo  Mo29  1  -0.12244896  -0.01814135  9.40873099  1
  Mo  Mo30  1  1.64261526  1.58285039  11.03510181  1
  Mo  Mo31  1  1.63059079  4.82938616  7.84276052  1
  Mo  Mo32  1  -0.03246387  3.13988443  9.53298710  1
  Mo  Mo33  1  1.56926702  4.70286616  11.08415288  1
  Mo  Mo34  1  3.02459455  0.06740005  9.56605189  1
  Mo  Mo35  1  3.19584635  3.19507186  9.57223789  1
  Mo  Mo36  1  4.66748783  1.71895223  7.77062367  1
  Mo  Mo37  1  4.71139549  1.52448557  11.00302995  1
  Mo  Mo38  1  4.74245455  4.75983094  7.88161414  1
  Mo  Mo39  1  4.83722043  4.66076564  11.06449273  1
  Mo  Mo40  1  7.81515688  1.53827746  7.89061015  1
  Mo  Mo41  1  6.26378258  0.00685364  9.44440721  1
  Mo  Mo42  1  7.94761464  1.55885111  11.03827920  1
  Mo  Mo43  1  7.80432394  4.70021502  7.85021748  1
  Mo  Mo44  1  6.21438398  3.12189242  9.41481770  1
  Mo  Mo45  1  7.87412740  4.75688192  10.97542631  1
  Mo  Mo46  1  -0.02577147  -0.01153207  12.60662279  1
  Mo  Mo47  1  1.64887076  1.53442487  14.29382091  1
  Mo  Mo48  1  -0.06814525  3.12889262  12.42481607  1
  Mo  Mo49  1  1.41307807  4.66436008  14.22054218  1
  Mo  Mo50  1  3.23296232  -0.14474337  12.62747446  1
  Mo  Mo51  1  3.21643986  3.12808834  12.70551929  1
  Mo  Mo52  1  4.89942792  1.65336876  14.23851433  1
  Mo  Mo53  1  4.84212554  4.63657771  14.36660317  1
  Mo  Mo54  1  6.38162432  -0.01742544  12.70005814  1
  Mo  Mo55  1  7.86536969  1.47109536  14.27257206  1
  Mo  Mo56  1  6.32328928  2.99974134  12.76767713  1
  Mo  Mo57  1  8.02312748  4.80069029  14.03724605  1
  Mo  Mo58  1  0.06004328  6.28661020  0.02732651  1
  Mo  Mo59  1  1.53975694  8.09728993  1.76908561  1
  Mo  Mo60  1  0.07772610  6.24142165  3.26274050  1
  Mo  Mo61  1  0.02945358  9.59785566  0.08995669  1
  Mo  Mo62  1  1.62877372  11.22147603  1.56599033  1
  Mo  Mo63  1  -0.01483040  9.62428763  3.23006295  1
  Mo  Mo64  1  3.16684267  6.33524424  -0.16509758  1
  Mo  Mo65  1  3.17813236  6.27339421  3.19232142  1
  Mo  Mo66  1  3.04575403  9.63540852  0.07927627  1
  Mo  Mo67  1  3.19567755  9.44596612  3.18827024  1
  Mo  Mo68  1  4.64628863  7.77675009  1.52373094  1
  Mo  Mo69  1  4.70029446  11.04026508  1.60415882  1
  Mo  Mo70  1  6.32585106  6.30999386  0.04065649  1
  Mo  Mo71  1  8.00144175  8.00880934  1.69227202  1
  Mo  Mo72  1  6.52788390  6.40975421  3.15906797  1
  Mo  Mo73  1  6.41369617  9.37647048  -0.07457898  1
  Mo  Mo74  1  7.89585285  11.14541708  1.56778754  1
  Mo  Mo75  1  6.39007421  9.46379927  3.19636267  1
  Mo  Mo76  1  1.57692256  7.93929383  4.69791141  1
  Mo  Mo77  1  -0.09574313  6.47514903  6.36179537  1
  Mo  Mo78  1  1.65311060  10.89221821  4.88203167  1
  Mo  Mo79  1  0.03341838  9.64002568  6.38792946  1
  Mo  Mo80  1  3.22123574  6.33731948  6.30898106  1
  Mo  Mo81  1  3.15177981  9.56432418  6.39240761  1
  Mo  Mo82  1  4.72594201  7.95337368  4.73926722  1
  Mo  Mo83  1  4.72698460  11.06469132  4.75803373  1
  Mo  Mo84  1  7.84233356  7.94977925  4.93845033  1
  Mo  Mo85  1  6.25696111  6.29641049  6.24901761  1
  Mo  Mo86  1  7.86749458  11.11433816  4.81113598  1
  Mo  Mo87  1  6.29563599  9.49479875  6.34783468  1
  Mo  Mo88  1  1.44132712  7.87348199  7.92976164  1
  Mo  Mo89  1  -0.08173279  6.32664541  9.37440517  1
  Mo  Mo90  1  1.52627286  7.87926088  11.13012585  1
  Mo  Mo91  1  1.48021052  11.13509054  7.97324234  1
  Mo  Mo92  1  0.01079412  9.44319583  9.49126390  1
  Mo  Mo93  1  1.56375622  11.08047901  11.07948608  1
  Mo  Mo94  1  3.22136482  6.38399744  9.40141305  1
  Mo  Mo95  1  3.17294923  9.50845163  9.47167325  1
  Mo  Mo96  1  4.76252180  7.86001776  7.99156202  1
  Mo  Mo97  1  4.67899596  7.87498132  11.11255087  1
  Mo  Mo98  1  4.62665827  10.98863237  7.84950256  1
  Mo  Mo99  1  4.79966757  11.03003783  10.90333910  1
  Mo  Mo100  1  7.88934912  7.93610651  7.94402021  1
  Mo  Mo101  1  6.31558409  6.36882536  9.48904965  1
  Mo  Mo102  1  7.83753768  7.89908983  11.18970206  1
  Mo  Mo103  1  7.77141802  10.95239017  7.95219208  1
  Mo  Mo104  1  6.30140496  9.38530762  9.64785995  1
  Mo  Mo105  1  7.93404120  11.14164392  10.90701296  1
  Mo  Mo106  1  -0.05818182  6.41176988  12.64167346  1
  Mo  Mo107  1  1.65613906  7.88383832  14.23613128  1
  Mo  Mo108  1  -0.02235796  9.49314055  12.76946442  1
  Mo  Mo109  1  1.69957011  11.00293065  14.19283924  1
  Mo  Mo110  1  3.23806602  6.28442574  12.55449361  1
  Mo  Mo111  1  3.21252768  9.35138890  12.64236851  1
  Mo  Mo112  1  4.91806534  7.79563575  14.07924728  1
  Mo  Mo113  1  4.80017396  10.85607531  14.19949192  1
  Mo  Mo114  1  6.28325407  6.20412694  12.69966096  1
  Mo  Mo115  1  8.15100781  7.93689093  14.36134061  1
  Mo  Mo116  1  6.47263690  9.56463199  12.61923309  1
  Mo  Mo117  1  8.01490597  11.21531982  14.33919812  1
