# generated using pymatgen
data_Mo
_symmetry_space_group_name_H-M   'P 1'
_cell_length_a   9.49048941
_cell_length_b   12.65398587
_cell_length_c   15.81748234
_cell_angle_alpha   90.00000000
_cell_angle_beta   90.00000000
_cell_angle_gamma   90.00000000
_symmetry_Int_Tables_number   1
_chemical_formula_structural   Mo
_chemical_formula_sum   Mo118
_cell_volume   1899.56129654
_cell_formula_units_Z   118
loop_
 _symmetry_equiv_pos_site_id
 _symmetry_equiv_pos_as_xyz
  1  'x, y, z'
loop_
 _atom_site_type_symbol
 _atom_site_label
 _atom_site_symmetry_multiplicity
 _atom_site_fract_x
 _atom_site_fract_y
 _atom_site_fract_z
 _atom_site_occupancy
  Mo  Mo0  1  0.02496273  0.04371096  3.17107258  1
  Mo  Mo1  1  -0.00446021  2.99830158  -0.09817066  1
  Mo  Mo2  1  1.66886850  4.69116937  1.63724347  1
  Mo  Mo3  1  0.02156559  3.03418632  3.21486109  1
  Mo  Mo4  1  3.16630648  0.06118198  -0.01451237  1
  Mo  Mo5  1  3.17963169  0.07197918  3.16845122  1
  Mo  Mo6  1  3.20812898  3.05742104  -0.07281870  1
  Mo  Mo7  1  3.23204882  3.14093695  3.02741449  1
  Mo  Mo8  1  4.96220138  1.55193034  1.45343102  1
  Mo  Mo9  1  4.72327101  4.69627306  1.57222597  1
  Mo  Mo10  1  6.33204698  -0.07250454  -0.04686522  1
  Mo  Mo11  1  8.04919207  1.54967638  1.50002954  1
  Mo  Mo12  1  6.33482721  -0.07215364  3.15505651  1
  Mo  Mo13  1  6.41609908  3.03831693  0.00398430  1
  Mo  Mo14  1  7.96935003  4.67676186  1.60396023  1
  Mo  Mo15  1  6.32145235  3.01820003  3.15178974  1
  Mo  Mo16  1  1.59544083  1.74868076  4.72240716  1
  Mo  Mo17  1  0.07416453  -0.00443284  6.28114905  1
  Mo  Mo18  1  1.53043326  4.74503619  4.62308369  1
  Mo  Mo19  1  0.02308687  3.23370703  6.39041181  1
  Mo  Mo20  1  3.03175362  0.11090111  6.35502354  1
  Mo  Mo21  1  3.28886466  3.17235346  6.21887205  1
  Mo  Mo22  1  4.78363164  1.67044727  4.72968538  1
  Mo  Mo23  1  4.73335925  4.79576532  4.49451825  1
  Mo  Mo24  1  7.98692501  1.53108860  4.71882266  1
  Mo  Mo25  1  6.34620626  0.07233574  6.37937035  1
  Mo  Mo26  1  7.97454309  4.72081846  4.67412064  1
  Mo  Mo27  1  6.31365780  2.95686633  6.31141376  1
  Mo  Mo28  1  1.54663799  1.69194435  8.04941052  1
  Mo  Mo29  1  -0.02488806  0.05205451  9.52383222  1
  Mo  Mo30  1  1.52864598  1.59432874  11.09567095  1
  Mo  Mo31  1  1.65851217  4.68475500  7.89711388  1
  Mo  Mo32  1  0.00623510  3.24672443  9.61090284  1
  Mo  Mo33  1  1.68779388  4.78594518  11.08862110  1
  Mo  Mo34  1  3.06873059  -0.01115892  9.55758214  1
  Mo  Mo35  1  3.22434363  3.24141221  9.58402405  1
  Mo  Mo36  1  4.65305053  1.44808902  7.91124337  1
  Mo  Mo37  1  4.72847400  1.58368446  11.03768344  1
  Mo  Mo38  1  4.96413761  4.76173738  7.87016558  1
  Mo  Mo39  1  4.82569244  4.68222301  11.08315994  1
  Mo  Mo40  1  7.90820499  1.61316475  7.97252743  1
  Mo  Mo41  1  6.27770356  0.02770055  9.51902641  1
  Mo  Mo42  1  7.84046684  1.62885315  11.12357247  1
  Mo  Mo43  1  7.83108359  4.72680587  7.86921236  1
  Mo  Mo44  1  6.37629225  3.29662943  9.54887409  1
  Mo  Mo45  1  7.94040592  4.95300679  11.03242088  1
  Mo  Mo46  1  -0.01928422  0.07118761  12.70800163  1
  Mo  Mo47  1  1.58022904  1.55458148  14.01152899  1
  Mo  Mo48  1  -0.03962632  3.24292148  12.65497881  1
  Mo  Mo49  1  1.53290568  4.78260891  14.35786533  1
  Mo  Mo50  1  3.15467919  0.02841487  12.64266639  1
  Mo  Mo51  1  3.15641683  3.09303768  12.63660948  1
  Mo  Mo52  1  4.61774170  1.60190485  14.21240009  1
  Mo  Mo53  1  4.54117634  4.70395839  14.27565016  1
  Mo  Mo54  1  6.29992548  -0.12017712  12.78406059  1
  Mo  Mo55  1  8.04384014  1.56543428  14.42796666  1
  Mo  Mo56  1  6.36855727  3.30365942  12.72676814  1
  Mo  Mo57  1  7.91224624  4.71554596  14.27495511  1
  Mo  Mo58  1  -0.15265906  6.22591198  -0.00129292  1
  Mo  Mo59  1  1.55355876  7.96346191  1.45401685  1
  Mo  Mo60  1  0.03972720  6.21841530  3.20660978  1
  Mo  Mo61  1  -0.03671076  9.51363476  0.02573047  1
  Mo  Mo62  1  1.50212464  11.12406894  1.57402319  1
  Mo  Mo63  1  -0.04200788  9.55950844  3.08879784  1
  Mo  Mo64  1  3.09972014  6.45505199  0.03527378  1
  Mo  Mo65  1  2.90830180  6.48262584  3.10164644  1
  Mo  Mo66  1  3.12869404  9.48309203  0.08720427  1
  Mo  Mo67  1  3.12503010  9.61911443  3.18324598  1
  Mo  Mo68  1  4.73492809  7.94705860  1.47865161  1
  Mo  Mo69  1  4.73988284  10.99836315  1.52744452  1
  Mo  Mo70  1  6.25908599  6.30907043  0.14113901  1
  Mo  Mo71  1  7.89599186  7.81915842  1.68914427  1
  Mo  Mo72  1  6.41511607  6.15039914  3.16416174  1
  Mo  Mo73  1  6.30234825  9.48618999  -0.01650837  1
  Mo  Mo74  1  7.99222729  11.01842047  1.48722066  1
  Mo  Mo75  1  6.33285126  9.41041899  3.20370048  1
  Mo  Mo76  1  1.45918012  8.03987833  4.56441106  1
  Mo  Mo77  1  0.06654970  6.29218057  6.29917085  1
  Mo  Mo78  1  1.49016968  11.23597291  4.74634686  1
  Mo  Mo79  1  0.01069750  9.44005815  6.34470693  1
  Mo  Mo80  1  3.17980049  6.23645696  6.27811066  1
  Mo  Mo81  1  3.07918621  9.43865811  6.27197431  1
  Mo  Mo82  1  4.63750114  7.96480238  4.63228822  1
  Mo  Mo83  1  4.82005256  10.96936939  4.70553716  1
  Mo  Mo84  1  7.91187885  7.69376044  4.76897589  1
  Mo  Mo85  1  6.43676209  6.32980295  6.28708681  1
  Mo  Mo86  1  7.94977925  11.03311593  4.70735424  1
  Mo  Mo87  1  6.38693653  9.49938612  6.28943014  1
  Mo  Mo88  1  1.51939181  7.81057944  7.98068937  1
  Mo  Mo89  1  0.10121203  6.32101546  9.64628118  1
  Mo  Mo90  1  1.52990701  7.94691959  11.12665057  1
  Mo  Mo91  1  1.51985849  10.97800794  8.02565947  1
  Mo  Mo92  1  0.09209687  9.48237711  9.56355962  1
  Mo  Mo93  1  1.51948117  11.21740499  11.07829455  1
  Mo  Mo94  1  3.15007196  6.34304872  9.52812171  1
  Mo  Mo95  1  3.24023062  9.40257479  9.44166671  1
  Mo  Mo96  1  4.69436662  7.89499893  7.73653615  1
  Mo  Mo97  1  4.82574208  7.89497907  11.07273411  1
  Mo  Mo98  1  4.69173534  10.97820653  7.80721339  1
  Mo  Mo99  1  4.65487753  10.98962530  11.01146991  1
  Mo  Mo100  1  7.99990269  7.97755169  8.00881927  1
  Mo  Mo101  1  6.36176558  6.33306971  9.39420433  1
  Mo  Mo102  1  7.81264475  8.02622545  11.17560235  1
  Mo  Mo103  1  7.82230603  11.13300537  7.77308615  1
  Mo  Mo104  1  6.30397666  9.60164867  9.48341970  1
  Mo  Mo105  1  7.97601264  10.98217828  11.13389901  1
  Mo  Mo106  1  0.01613969  6.44299774  12.73868338  1
  Mo  Mo107  1  1.53000630  7.95924193  14.22769132  1
  Mo  Mo108  1  0.02010588  9.51019920  12.68863937  1
  Mo  Mo109  1  1.50140972  11.17858116  14.32430407  1
  Mo  Mo110  1  3.12975648  6.31427342  12.70402989  1
  Mo  Mo111  1  3.13868298  9.57369750  12.77462769  1
  Mo  Mo112  1  4.85719832  7.91833294  14.20614459  1
  Mo  Mo113  1  4.74183893  11.04969798  14.27277065  1
  Mo  Mo114  1  6.24291105  6.30009428  12.74563394  1
  Mo  Mo115  1  7.94696924  7.94695931  14.18439928  1
  Mo  Mo116  1  6.21839544  9.54465410  12.61019736  1
  Mo  Mo117  1  8.07917876  10.95288664  14.35726957  1
