# generated using pymatgen
data_Mo
_symmetry_space_group_name_H-M   'P 1'
_cell_length_a   9.49048941
_cell_length_b   12.65398587
_cell_length_c   15.81748234
_cell_angle_alpha   90.00000000
_cell_angle_beta   90.00000000
_cell_angle_gamma   90.00000000
_symmetry_Int_Tables_number   1
_chemical_formula_structural   Mo
_chemical_formula_sum   Mo118
_cell_volume   1899.56129654
_cell_formula_units_Z   118
loop_
 _symmetry_equiv_pos_site_id
 _symmetry_equiv_pos_as_xyz
  1  'x, y, z'
loop_
 _atom_site_type_symbol
 _atom_site_label
 _atom_site_symmetry_multiplicity
 _atom_site_fract_x
 _atom_site_fract_y
 _atom_site_fract_z
 _atom_site_occupancy
  Mo  Mo0  1  1.64788775  1.61334348  1.66161014  1
  Mo  Mo1  1  -0.04123190  3.03593388  -0.01270661  1
  Mo  Mo2  1  1.62367002  4.73480894  1.49702094  1
  Mo  Mo3  1  -0.06687032  3.04970592  3.06146229  1
  Mo  Mo4  1  3.11408794  0.16597335  -0.03283632  1
  Mo  Mo5  1  3.09380224  0.13440888  3.29924085  1
  Mo  Mo6  1  3.09185608  3.32015210  -0.03014030  1
  Mo  Mo7  1  3.29994584  3.18634394  3.12938909  1
  Mo  Mo8  1  4.80744226  1.68682080  1.51248097  1
  Mo  Mo9  1  4.74420212  4.81598152  1.53937962  1
  Mo  Mo10  1  6.45790172  0.04646418  0.00136937  1
  Mo  Mo11  1  7.97747225  1.43979800  1.60139845  1
  Mo  Mo12  1  6.23816482  -0.00084666  3.19321507  1
  Mo  Mo13  1  6.36385075  3.29591451  -0.13024848  1
  Mo  Mo14  1  7.94953101  4.73413374  1.34264907  1
  Mo  Mo15  1  6.32245522  3.06047928  3.09362351  1
  Mo  Mo16  1  1.51616476  1.66681313  4.64559357  1
  Mo  Mo17  1  -0.08979782  0.00921470  6.17365372  1
  Mo  Mo18  1  1.50371334  4.73216773  4.75277116  1
  Mo  Mo19  1  -0.08388707  3.09521221  6.23875065  1
  Mo  Mo20  1  3.04281494  0.10622338  6.30281493  1
  Mo  Mo21  1  3.22037189  3.15040956  6.24531396  1
  Mo  Mo22  1  4.73258476  1.53455395  4.82125401  1
  Mo  Mo23  1  4.83275222  4.73544442  4.82646693  1
  Mo  Mo24  1  7.81319087  1.61210231  4.54668714  1
  Mo  Mo25  1  6.30927895  -0.18485106  6.32398434  1
  Mo  Mo26  1  7.97330192  4.76727797  4.61605370  1
  Mo  Mo27  1  6.28799038  3.09978965  6.33456904  1
  Mo  Mo28  1  1.56318032  1.68440796  7.84500456  1
  Mo  Mo29  1  -0.14070212  0.09762544  9.36518079  1
  Mo  Mo30  1  1.53754269  1.66799472  11.07690444  1
  Mo  Mo31  1  1.73275405  4.56561252  7.82510611  1
  Mo  Mo32  1  0.07358317  3.32414370  9.53210338  1
  Mo  Mo33  1  1.73476972  4.65972306  11.09050768  1
  Mo  Mo34  1  3.12515918  0.10269945  9.49242563  1
  Mo  Mo35  1  3.24415272  3.16336739  9.48726236  1
  Mo  Mo36  1  4.70925075  1.55060974  7.90166153  1
  Mo  Mo37  1  4.70190301  1.56181006  11.04046366  1
  Mo  Mo38  1  4.82080719  4.72604131  7.92207631  1
  Mo  Mo39  1  4.72754064  4.59294806  10.96996515  1
  Mo  Mo40  1  7.92426077  1.42005841  7.74674354  1
  Mo  Mo41  1  6.26974020  -0.09172015  9.56436390  1
  Mo  Mo42  1  7.96473287  1.58332700  10.96847575  1
  Mo  Mo43  1  7.88450358  4.65429170  7.83189780  1
  Mo  Mo44  1  6.43037751  3.03761195  9.47331160  1
  Mo  Mo45  1  7.84305841  4.71651904  11.09735894  1
  Mo  Mo46  1  0.05643813  0.04033081  12.80372073  1
  Mo  Mo47  1  1.66385417  1.69539977  14.30911213  1
  Mo  Mo48  1  0.08338137  3.18369280  12.56362863  1
  Mo  Mo49  1  1.60489359  4.78805021  14.28389154  1
  Mo  Mo50  1  3.12062146  0.09408453  12.70720728  1
  Mo  Mo51  1  3.22773948  3.07966282  12.64385792  1
  Mo  Mo52  1  4.88383881  1.66081579  14.34247481  1
  Mo  Mo53  1  4.76925391  4.81351903  14.12551813  1
  Mo  Mo54  1  6.40406469  0.19412211  12.70810093  1
  Mo  Mo55  1  8.04007691  1.65037009  14.22173370  1
  Mo  Mo56  1  6.38608260  3.12038315  12.63512008  1
  Mo  Mo57  1  7.87901264  4.87310517  14.13922066  1
  Mo  Mo58  1  0.09146427  6.35821087  0.01348895  1
  Mo  Mo59  1  1.59061516  7.93993924  1.68468599  1
  Mo  Mo60  1  0.02136452  6.29099898  3.10456567  1
  Mo  Mo61  1  0.02330393  9.46675822  0.21157496  1
  Mo  Mo62  1  1.58337665  11.08216701  1.47357771  1
  Mo  Mo63  1  0.11863807  9.52204493  3.11715611  1
  Mo  Mo64  1  3.29388892  6.37235029  0.02571100  1
  Mo  Mo65  1  3.18563896  6.30118651  3.14919818  1
  Mo  Mo66  1  3.18097216  9.46421630  -0.09801120  1
  Mo  Mo67  1  3.17384287  9.51833135  3.09003901  1
  Mo  Mo68  1  4.62042262  7.87405789  1.66819331  1
  Mo  Mo69  1  4.73207836  11.08564229  1.68971025  1
  Mo  Mo70  1  6.30837537  6.39914965  0.04166720  1
  Mo  Mo71  1  7.94400035  7.88695614  1.65649651  1
  Mo  Mo72  1  6.34232388  6.36532030  3.20296570  1
  Mo  Mo73  1  6.31181093  9.59433073  0.18392564  1
  Mo  Mo74  1  7.79698614  11.06498920  1.69995735  1
  Mo  Mo75  1  6.32454038  9.64660885  3.26943289  1
  Mo  Mo76  1  1.53035383  7.78660002  4.94084331  1
  Mo  Mo77  1  -0.01991603  6.22855319  6.33874931  1
  Mo  Mo78  1  1.44283638  11.05098879  4.65836274  1
  Mo  Mo79  1  0.02954334  9.48683540  6.40520656  1
  Mo  Mo80  1  3.21318302  6.27075300  6.31563374  1
  Mo  Mo81  1  3.21477172  9.43892620  6.32388504  1
  Mo  Mo82  1  4.74355671  7.77309608  4.63926856  1
  Mo  Mo83  1  4.69475387  11.12019648  4.78018615  1
  Mo  Mo84  1  7.99002297  7.91225617  4.79901223  1
  Mo  Mo85  1  6.31618978  6.34939359  6.24805447  1
  Mo  Mo86  1  7.84511378  10.98068887  4.79185315  1
  Mo  Mo87  1  6.31259535  9.27525051  6.44027709  1
  Mo  Mo88  1  1.51296751  7.96928052  7.85866737  1
  Mo  Mo89  1  0.18556399  6.16988056  9.42157960  1
  Mo  Mo90  1  1.55769931  7.92797436  11.13211173  1
  Mo  Mo91  1  1.63974567  11.11384169  7.86196392  1
  Mo  Mo92  1  -0.05820367  9.36062321  9.50394370  1
  Mo  Mo93  1  1.45804817  11.18195715  11.09765682  1
  Mo  Mo94  1  3.19001781  6.43010942  9.60527289  1
  Mo  Mo95  1  3.26022837  9.54854642  9.57702384  1
  Mo  Mo96  1  4.67213477  7.76496393  7.96158526  1
  Mo  Mo97  1  4.67560012  7.88294467  11.16209841  1
  Mo  Mo98  1  4.68635362  11.05476195  7.88864413  1
  Mo  Mo99  1  4.70902237  11.12694845  11.14263685  1
  Mo  Mo100  1  7.96991600  7.89376768  7.99434225  1
  Mo  Mo101  1  6.27783264  6.18662147  9.54353209  1
  Mo  Mo102  1  7.73111472  7.94032649  11.12347318  1
  Mo  Mo103  1  7.74713079  10.97959664  7.96289594  1
  Mo  Mo104  1  6.22197995  9.48706377  9.62909345  1
  Mo  Mo105  1  7.98426394  11.16954544  11.06459203  1
  Mo  Mo106  1  -0.07772381  6.32972351  12.61049524  1
  Mo  Mo107  1  1.60669081  7.95669009  14.29749477  1
  Mo  Mo108  1  -0.02604294  9.50081595  12.63392855  1
  Mo  Mo109  1  1.57788571  11.18185786  14.17337768  1
  Mo  Mo110  1  2.93739484  6.20228008  12.63790030  1
  Mo  Mo111  1  3.08773539  9.47142502  12.62866599  1
  Mo  Mo112  1  4.91353755  7.91494703  14.20703824  1
  Mo  Mo113  1  4.65679390  11.05764147  14.36292930  1
  Mo  Mo114  1  6.21214987  6.29863466  12.48459086  1
  Mo  Mo115  1  7.94618482  7.93418021  14.28279931  1
  Mo  Mo116  1  6.37098003  9.53614464  12.65448234  1
  Mo  Mo117  1  7.99230673  10.99985255  14.34108470  1
