# generated using pymatgen
data_Mo
_symmetry_space_group_name_H-M   'P 1'
_cell_length_a   9.49048941
_cell_length_b   12.65398587
_cell_length_c   15.81748234
_cell_angle_alpha   90.00000000
_cell_angle_beta   90.00000000
_cell_angle_gamma   90.00000000
_symmetry_Int_Tables_number   1
_chemical_formula_structural   Mo
_chemical_formula_sum   Mo118
_cell_volume   1899.56129654
_cell_formula_units_Z   118
loop_
 _symmetry_equiv_pos_site_id
 _symmetry_equiv_pos_as_xyz
  1  'x, y, z'
loop_
 _atom_site_type_symbol
 _atom_site_label
 _atom_site_symmetry_multiplicity
 _atom_site_fract_x
 _atom_site_fract_y
 _atom_site_fract_z
 _atom_site_occupancy
  Mo  Mo0  1  1.42075347  1.47574231  1.51524133  1
  Mo  Mo1  1  0.05104201  3.11049350  0.12675235  1
  Mo  Mo2  1  1.57887865  4.90505787  1.57590977  1
  Mo  Mo3  1  -0.00906494  3.10092159  3.18609571  1
  Mo  Mo4  1  3.01331479  -0.04880830  -0.04309494  1
  Mo  Mo5  1  3.11681851  0.04284095  3.20499129  1
  Mo  Mo6  1  3.06180982  3.06900861  -0.08080956  1
  Mo  Mo7  1  3.02458462  3.14130433  3.10395005  1
  Mo  Mo8  1  4.87550807  1.54667771  1.78765353  1
  Mo  Mo9  1  4.75273145  4.75925504  1.81593237  1
  Mo  Mo10  1  6.45165615  -0.13494110  0.05736315  1
  Mo  Mo11  1  7.89072930  1.60062396  1.62124726  1
  Mo  Mo12  1  6.34008977  0.00373842  3.07641592  1
  Mo  Mo13  1  6.32771778  3.12760181  0.00781807  1
  Mo  Mo14  1  7.91099514  4.74497661  1.55614040  1
  Mo  Mo15  1  6.39258634  3.25919571  3.17124137  1
  Mo  Mo16  1  1.53525894  1.71079029  4.66317848  1
  Mo  Mo17  1  -0.04741839  -0.00940874  6.34679210  1
  Mo  Mo18  1  1.49036827  4.77534062  4.75314848  1
  Mo  Mo19  1  0.06700387  3.16139144  6.36638274  1
  Mo  Mo20  1  3.18878657  0.06975023  6.35164756  1
  Mo  Mo21  1  3.20640127  3.30796876  6.19593522  1
  Mo  Mo22  1  4.60942089  1.65427233  4.88985601  1
  Mo  Mo23  1  4.69982778  4.83174935  4.64114521  1
  Mo  Mo24  1  7.81859244  1.55848373  4.76746663  1
  Mo  Mo25  1  6.40613992  -0.01851072  6.32515600  1
  Mo  Mo26  1  7.95085162  4.74468866  4.89663777  1
  Mo  Mo27  1  6.35184614  3.13740209  6.35642358  1
  Mo  Mo28  1  1.46887119  1.68392143  8.00445034  1
  Mo  Mo29  1  -0.04806479  0.11705533  9.47502938  1
  Mo  Mo30  1  1.60823979  1.56102564  11.15167258  1
  Mo  Mo31  1  1.75654482  4.77218308  7.84916497  1
  Mo  Mo32  1  -0.09723363  3.21143545  9.53944119  1
  Mo  Mo33  1  1.54671743  4.73382593  11.01454801  1
  Mo  Mo34  1  3.13697513  -0.00063340  9.41164030  1
  Mo  Mo35  1  3.18597656  3.16727956  9.49017167  1
  Mo  Mo36  1  4.79604335  1.74335862  7.92578989  1
  Mo  Mo37  1  4.70853583  1.59512309  11.13806935  1
  Mo  Mo38  1  4.78897364  4.65250441  7.93535188  1
  Mo  Mo39  1  4.81698438  4.61583526  11.04612340  1
  Mo  Mo40  1  7.84667270  1.56546407  7.87831759  1
  Mo  Mo41  1  6.21169312  0.00567639  9.49775770  1
  Mo  Mo42  1  7.97357994  1.52768283  11.01613671  1
  Mo  Mo43  1  7.93393198  4.73336918  7.80714388  1
  Mo  Mo44  1  6.37765257  3.17949268  9.50896796  1
  Mo  Mo45  1  7.90168139  4.70123775  11.14541708  1
  Mo  Mo46  1  0.02546307  -0.05070471  12.60761573  1
  Mo  Mo47  1  1.44119804  1.49106332  14.32003444  1
  Mo  Mo48  1  0.04108047  3.12164418  12.75129367  1
  Mo  Mo49  1  1.56539457  4.64242610  14.20862693  1
  Mo  Mo50  1  3.13340056  0.02040932  12.64425509  1
  Mo  Mo51  1  3.15741970  3.15434159  12.84701278  1
  Mo  Mo52  1  4.67681150  1.50403108  14.23047154  1
  Mo  Mo53  1  4.64941638  4.74633693  14.26830243  1
  Mo  Mo54  1  6.33140158  -0.16318518  12.71515078  1
  Mo  Mo55  1  7.96062212  1.56569245  14.30106935  1
  Mo  Mo56  1  6.22980429  3.11133750  12.66490818  1
  Mo  Mo57  1  7.98694487  4.72448240  14.38487321  1
  Mo  Mo58  1  -0.03232376  6.27566804  0.01018227  1
  Mo  Mo59  1  1.69469479  7.90481907  1.48577097  1
  Mo  Mo60  1  -0.07674190  6.32175023  3.10553875  1
  Mo  Mo61  1  0.14198003  9.57538550  -0.03182998  1
  Mo  Mo62  1  1.55105656  11.09666388  1.42449684  1
  Mo  Mo63  1  0.05944017  9.49183980  3.15959423  1
  Mo  Mo64  1  3.11576600  6.34027843  -0.04266689  1
  Mo  Mo65  1  2.95909051  6.39423461  3.20298556  1
  Mo  Mo66  1  3.32056913  9.51790439  0.00162225  1
  Mo  Mo67  1  3.34274141  9.59859043  3.13522756  1
  Mo  Mo68  1  4.75952313  7.93073472  1.61633222  1
  Mo  Mo69  1  4.70871456  11.22117815  1.40026919  1
  Mo  Mo70  1  6.34485587  6.38904155  0.03358440  1
  Mo  Mo71  1  7.87589482  7.95470421  1.51267955  1
  Mo  Mo72  1  6.33096468  6.26804228  3.20082096  1
  Mo  Mo73  1  6.38756208  9.52645357  -0.13147674  1
  Mo  Mo74  1  7.90973411  11.00799463  1.54203076  1
  Mo  Mo75  1  6.31352871  9.56102763  3.23059913  1
  Mo  Mo76  1  1.57416220  7.86086176  4.91916750  1
  Mo  Mo77  1  -0.00769029  6.41515579  6.32501699  1
  Mo  Mo78  1  1.57041883  11.10718901  4.64871139  1
  Mo  Mo79  1  0.05140980  9.59203705  6.24674379  1
  Mo  Mo80  1  3.23351837  6.48400602  6.38666844  1
  Mo  Mo81  1  3.20588494  9.58060834  6.29221036  1
  Mo  Mo82  1  4.72483985  7.90748014  4.69727593  1
  Mo  Mo83  1  4.71054156  10.99270341  4.66393311  1
  Mo  Mo84  1  7.91826343  7.83037860  4.82234624  1
  Mo  Mo85  1  6.31852319  6.28865565  6.36424792  1
  Mo  Mo86  1  7.92307918  11.06836519  4.66518421  1
  Mo  Mo87  1  6.38778052  9.43585803  6.26253148  1
  Mo  Mo88  1  1.69414867  7.92804386  8.01261228  1
  Mo  Mo89  1  -0.03183256  6.30798813  9.49365687  1
  Mo  Mo90  1  1.68659243  7.87656009  10.88655847  1
  Mo  Mo91  1  1.61827838  11.15862314  7.84730817  1
  Mo  Mo92  1  0.12768471  9.37809889  9.54333350  1
  Mo  Mo93  1  1.51906414  11.04870504  11.02050563  1
  Mo  Mo94  1  3.21417596  6.17665238  9.45182445  1
  Mo  Mo95  1  3.26603705  9.63333329  9.44842860  1
  Mo  Mo96  1  4.71710488  8.02927376  7.80786873  1
  Mo  Mo97  1  4.79722494  7.82128330  11.17192849  1
  Mo  Mo98  1  4.77402001  11.21760358  7.89343009  1
  Mo  Mo99  1  4.71913047  11.03013712  10.91813386  1
  Mo  Mo100  1  8.01797414  7.90556377  8.04273798  1
  Mo  Mo101  1  6.37556740  6.37229071  9.50425151  1
  Mo  Mo102  1  7.94391099  7.89626989  11.16736098  1
  Mo  Mo103  1  7.80909997  11.11850849  7.91270299  1
  Mo  Mo104  1  6.33168953  9.42507473  9.58613900  1
  Mo  Mo105  1  7.92106352  11.04483259  10.99697303  1
  Mo  Mo106  1  -0.00203984  6.29654950  12.74056996  1
  Mo  Mo107  1  1.47647708  7.75123162  14.24586206  1
  Mo  Mo108  1  -0.10488987  9.45198332  12.53433700  1
  Mo  Mo109  1  1.56767832  11.05019444  14.22699626  1
  Mo  Mo110  1  3.16674337  6.33199734  12.64514874  1
  Mo  Mo111  1  3.02549812  9.38425510  12.62538930  1
  Mo  Mo112  1  4.63397621  7.87740409  14.26006106  1
  Mo  Mo113  1  4.71104796  11.01226426  14.18459787  1
  Mo  Mo114  1  6.42798453  6.39827587  12.70661152  1
  Mo  Mo115  1  7.97166357  7.91607897  14.17794519  1
  Mo  Mo116  1  6.25242339  9.45522029  12.65398587  1
  Mo  Mo117  1  7.98925841  11.03897426  14.10794315  1
