# generated using pymatgen
data_Mo
_symmetry_space_group_name_H-M   'P 1'
_cell_length_a   9.49048941
_cell_length_b   12.65398587
_cell_length_c   15.81748234
_cell_angle_alpha   90.00000000
_cell_angle_beta   90.00000000
_cell_angle_gamma   90.00000000
_symmetry_Int_Tables_number   1
_chemical_formula_structural   Mo
_chemical_formula_sum   Mo118
_cell_volume   1899.56129654
_cell_formula_units_Z   118
loop_
 _symmetry_equiv_pos_site_id
 _symmetry_equiv_pos_as_xyz
  1  'x, y, z'
loop_
 _atom_site_type_symbol
 _atom_site_label
 _atom_site_symmetry_multiplicity
 _atom_site_fract_x
 _atom_site_fract_y
 _atom_site_fract_z
 _atom_site_occupancy
  Mo  Mo0  1  1.51641300  1.35145642  1.64008327  1
  Mo  Mo1  1  -0.10817351  3.20452461  0.02151356  1
  Mo  Mo2  1  1.79173450  4.62700580  1.73352854  1
  Mo  Mo3  1  0.08436477  3.15737005  3.21326246  1
  Mo  Mo4  1  2.95212009  -0.00703049  -0.00943998  1
  Mo  Mo5  1  3.05246628  0.05032064  3.24284204  1
  Mo  Mo6  1  3.09257100  3.09014823  -0.05674733  1
  Mo  Mo7  1  3.13852411  3.21111771  3.25465799  1
  Mo  Mo8  1  4.77933222  1.52120888  1.53611286  1
  Mo  Mo9  1  4.78807006  4.79531850  1.44756276  1
  Mo  Mo10  1  6.15344745  -0.08462850  0.00789625  1
  Mo  Mo11  1  7.97612186  1.34097100  1.36560576  1
  Mo  Mo12  1  6.34379343  0.03930540  3.09220361  1
  Mo  Mo13  1  6.17521263  3.06773765  0.00692310  1
  Mo  Mo14  1  8.03224264  4.69344319  1.66013066  1
  Mo  Mo15  1  6.58199895  3.02445554  2.96695457  1
  Mo  Mo16  1  1.62170401  1.66852098  4.76276011  1
  Mo  Mo17  1  -0.10315223  -0.05952864  6.41050885  1
  Mo  Mo18  1  1.65285243  4.70843654  4.81034164  1
  Mo  Mo19  1  0.07134360  3.15069751  6.31769905  1
  Mo  Mo20  1  3.13929860  0.06818248  6.39422468  1
  Mo  Mo21  1  3.06343823  3.09641366  6.31874163  1
  Mo  Mo22  1  4.65355692  1.69297701  4.82789676  1
  Mo  Mo23  1  4.73463021  4.67239293  4.63481028  1
  Mo  Mo24  1  7.92287066  1.40839141  4.56900836  1
  Mo  Mo25  1  6.39191114  -0.04721792  6.35923359  1
  Mo  Mo26  1  8.01785499  4.82039016  4.77685981  1
  Mo  Mo27  1  6.45113982  3.21949810  6.27673048  1
  Mo  Mo28  1  1.39718115  1.65185950  7.93995910  1
  Mo  Mo29  1  -0.12873028  -0.12356403  9.49663568  1
  Mo  Mo30  1  1.54698552  1.50216435  11.04542835  1
  Mo  Mo31  1  1.70467380  4.94766479  8.00223609  1
  Mo  Mo32  1  0.02962179  3.32331957  9.54755348  1
  Mo  Mo33  1  1.60132895  4.73134359  11.09378437  1
  Mo  Mo34  1  3.15723104  -0.05226114  9.53644252  1
  Mo  Mo35  1  3.10108046  3.14888044  9.54842726  1
  Mo  Mo36  1  4.89706473  1.67794395  7.87976728  1
  Mo  Mo37  1  4.83788570  1.59667207  10.99429210  1
  Mo  Mo38  1  4.71385797  4.69451556  7.77693875  1
  Mo  Mo39  1  4.86206371  4.70466338  11.05764147  1
  Mo  Mo40  1  7.92696156  1.69706791  7.86788182  1
  Mo  Mo41  1  6.44075370  -0.07415371  9.50977224  1
  Mo  Mo42  1  8.05373972  1.49928484  10.95000713  1
  Mo  Mo43  1  7.99016198  4.76806239  7.75703037  1
  Mo  Mo44  1  6.30421497  3.12722449  9.38919993  1
  Mo  Mo45  1  7.90817520  4.74940511  11.14650931  1
  Mo  Mo46  1  -0.07586394  -0.03750114  12.65726256  1
  Mo  Mo47  1  1.45347074  1.58546182  14.34684373  1
  Mo  Mo48  1  0.00262125  3.09885629  12.63224056  1
  Mo  Mo49  1  1.54977567  4.72139436  14.21666972  1
  Mo  Mo50  1  3.13177214  0.00190628  12.54347201  1
  Mo  Mo51  1  3.03573530  3.17163855  12.65329082  1
  Mo  Mo52  1  4.58849971  1.56438177  14.20306649  1
  Mo  Mo53  1  4.70605349  4.73758916  14.15431329  1
  Mo  Mo54  1  6.40845347  -0.06609374  12.72329286  1
  Mo  Mo55  1  7.86262919  1.69944103  14.07080731  1
  Mo  Mo56  1  6.34000041  3.19926205  12.49541388  1
  Mo  Mo57  1  7.74437042  4.77578744  14.37057492  1
  Mo  Mo58  1  -0.00796251  6.32331907  0.03820930  1
  Mo  Mo59  1  1.57437071  7.95175519  1.70123824  1
  Mo  Mo60  1  0.04585819  6.35053547  3.23068850  1
  Mo  Mo61  1  -0.01910569  9.53595598  0.12934590  1
  Mo  Mo62  1  1.55384671  11.23527785  1.64482951  1
  Mo  Mo63  1  -0.00523581  9.52768482  3.15326922  1
  Mo  Mo64  1  3.07897769  6.31942676  0.00158137  1
  Mo  Mo65  1  3.05879129  6.34427997  3.14612008  1
  Mo  Mo66  1  3.09253128  9.56817678  0.07651650  1
  Mo  Mo67  1  3.10370182  9.56666751  3.19638253  1
  Mo  Mo68  1  4.46634863  8.03777330  1.55177147  1
  Mo  Mo69  1  4.71052170  11.13717570  1.53792994  1
  Mo  Mo70  1  6.27168636  6.41362667  0.00902478  1
  Mo  Mo71  1  8.07904968  7.92892757  1.60524112  1
  Mo  Mo72  1  6.40088729  6.51246359  3.05378689  1
  Mo  Mo73  1  6.24640619  9.48768932  -0.02335705  1
  Mo  Mo74  1  7.83033889  11.02785337  1.51000855  1
  Mo  Mo75  1  6.28505129  9.57915866  3.15549340  1
  Mo  Mo76  1  1.60370207  7.92957298  4.81574321  1
  Mo  Mo77  1  0.16621761  6.29915099  6.34522326  1
  Mo  Mo78  1  1.48184887  11.06747154  4.75857984  1
  Mo  Mo79  1  -0.13735195  9.55694666  6.35604627  1
  Mo  Mo80  1  3.30253740  6.31406490  6.24715089  1
  Mo  Mo81  1  3.10744519  9.45528980  6.37192332  1
  Mo  Mo82  1  4.79723487  8.00727028  4.74412268  1
  Mo  Mo83  1  4.82548392  11.22703648  4.79362058  1
  Mo  Mo84  1  7.85741627  8.07387648  4.75217540  1
  Mo  Mo85  1  6.30166312  6.17267071  6.27420842  1
  Mo  Mo86  1  7.94957073  11.13409760  4.55010284  1
  Mo  Mo87  1  6.33311936  9.44261000  6.24992119  1
  Mo  Mo88  1  1.54548618  7.96702656  7.93667248  1
  Mo  Mo89  1  0.06145087  6.25598803  9.53982843  1
  Mo  Mo90  1  1.64335003  7.81942651  11.08782675  1
  Mo  Mo91  1  1.53635117  11.03728627  8.00187864  1
  Mo  Mo92  1  0.05750315  9.45054356  9.42041786  1
  Mo  Mo93  1  1.56543428  11.06101745  11.07640797  1
  Mo  Mo94  1  3.25497573  6.44814115  9.45286703  1
  Mo  Mo95  1  3.34870896  9.34214466  9.56949738  1
  Mo  Mo96  1  4.63207970  7.94394078  7.88876328  1
  Mo  Mo97  1  4.86614468  7.85206434  11.15772949  1
  Mo  Mo98  1  4.61100958  11.10669254  7.84639467  1
  Mo  Mo99  1  4.73195921  11.05734359  11.18860983  1
  Mo  Mo100  1  7.95207293  7.85917377  8.00341769  1
  Mo  Mo101  1  6.37677879  6.28064265  9.53080264  1
  Mo  Mo102  1  8.13704712  7.90464034  11.03619404  1
  Mo  Mo103  1  7.86537962  10.97532701  7.90665600  1
  Mo  Mo104  1  6.44740638  9.29984555  9.52746637  1
  Mo  Mo105  1  7.79741310  11.03093147  11.08107478  1
  Mo  Mo106  1  0.00296105  6.26137968  12.74712334  1
  Mo  Mo107  1  1.48917674  7.93268088  14.30514039  1
  Mo  Mo108  1  0.11314812  9.57803664  12.79091185  1
  Mo  Mo109  1  1.61829824  11.13707641  14.21448526  1
  Mo  Mo110  1  3.21487102  6.23166108  12.61476487  1
  Mo  Mo111  1  3.15173017  9.48787798  12.61337476  1
  Mo  Mo112  1  4.74473830  7.96478252  14.27187701  1
  Mo  Mo113  1  4.73405431  10.95814921  14.21210221  1
  Mo  Mo114  1  6.41024075  6.41721117  12.67801494  1
  Mo  Mo115  1  7.91147175  8.00207722  14.30960860  1
  Mo  Mo116  1  6.39903050  9.50816368  12.54486213  1
  Mo  Mo117  1  7.88976615  11.13131738  14.26006106  1
