# generated using pymatgen
data_Mo
_symmetry_space_group_name_H-M   'P 1'
_cell_length_a   9.49048941
_cell_length_b   12.65398587
_cell_length_c   15.81748234
_cell_angle_alpha   90.00000000
_cell_angle_beta   90.00000000
_cell_angle_gamma   90.00000000
_symmetry_Int_Tables_number   1
_chemical_formula_structural   Mo
_chemical_formula_sum   Mo118
_cell_volume   1899.56129654
_cell_formula_units_Z   118
loop_
 _symmetry_equiv_pos_site_id
 _symmetry_equiv_pos_as_xyz
  1  'x, y, z'
loop_
 _atom_site_type_symbol
 _atom_site_label
 _atom_site_symmetry_multiplicity
 _atom_site_fract_x
 _atom_site_fract_y
 _atom_site_fract_z
 _atom_site_occupancy
  Mo  Mo0  1  1.57718073  1.68794282  1.49227470  1
  Mo  Mo1  1  0.01068221  3.18437793  -0.01251210  1
  Mo  Mo2  1  1.56537471  4.78304580  1.64307201  1
  Mo  Mo3  1  0.02527769  3.10919276  3.07029943  1
  Mo  Mo4  1  2.98634662  -0.02934922  0.06719094  1
  Mo  Mo5  1  3.26580867  -0.04367273  3.19010717  1
  Mo  Mo6  1  3.33704195  3.17874798  -0.07821839  1
  Mo  Mo7  1  3.27227269  3.17109243  3.07107392  1
  Mo  Mo8  1  4.92293073  1.65772775  1.59900547  1
  Mo  Mo9  1  4.77382142  4.85401099  1.54433438  1
  Mo  Mo10  1  6.24747856  0.12396716  -0.06283681  1
  Mo  Mo11  1  8.17524539  1.53796965  1.45038270  1
  Mo  Mo12  1  6.50752870  -0.03556888  3.17606705  1
  Mo  Mo13  1  6.45827903  3.10111025  -0.03832041  1
  Mo  Mo14  1  7.88744268  4.68905441  1.61805993  1
  Mo  Mo15  1  6.37368082  3.13004443  3.09029717  1
  Mo  Mo16  1  1.70045382  1.43644187  4.82927694  1
  Mo  Mo17  1  0.00962849  -0.17025986  6.28838756  1
  Mo  Mo18  1  1.58679235  4.75504499  4.72569378  1
  Mo  Mo19  1  0.01021672  3.07177890  6.29271676  1
  Mo  Mo20  1  3.15047907  -0.10418786  6.47395750  1
  Mo  Mo21  1  3.25444947  3.24006182  6.28593500  1
  Mo  Mo22  1  4.74912709  1.56918758  4.79745332  1
  Mo  Mo23  1  4.82685417  4.72079860  4.63380741  1
  Mo  Mo24  1  7.88855477  1.49754720  4.67752642  1
  Mo  Mo25  1  6.26640394  -0.10025087  6.34289978  1
  Mo  Mo26  1  7.85430838  4.66832189  4.85989911  1
  Mo  Mo27  1  6.26410032  3.11544826  6.31908916  1
  Mo  Mo28  1  1.63005461  1.58570012  8.03368240  1
  Mo  Mo29  1  -0.03996719  -0.05869865  9.43159833  1
  Mo  Mo30  1  1.60682982  1.43117931  11.32662803  1
  Mo  Mo31  1  1.62643039  4.74710149  7.95454534  1
  Mo  Mo32  1  0.10223674  3.08842052  9.68827248  1
  Mo  Mo33  1  1.64876154  4.89760092  11.16646734  1
  Mo  Mo34  1  3.04057090  -0.00078419  9.57252584  1
  Mo  Mo35  1  3.01930219  3.21287521  9.59081573  1
  Mo  Mo36  1  4.68123007  1.61743438  7.88757176  1
  Mo  Mo37  1  4.68123007  1.64118543  11.14214039  1
  Mo  Mo38  1  4.74202759  4.72486964  7.92633601  1
  Mo  Mo39  1  4.85961116  4.70180372  11.16855250  1
  Mo  Mo40  1  7.96386902  1.58568026  7.94603588  1
  Mo  Mo41  1  6.17981985  -0.06231770  9.44210360  1
  Mo  Mo42  1  7.95242046  1.47030101  11.09020979  1
  Mo  Mo43  1  8.02278989  4.64601060  7.95759366  1
  Mo  Mo44  1  6.36605507  3.13977521  9.49190930  1
  Mo  Mo45  1  7.94653234  4.88834675  11.15812667  1
  Mo  Mo46  1  -0.00222679  -0.06425671  12.64703532  1
  Mo  Mo47  1  1.51130930  1.65558301  14.34148187  1
  Mo  Mo48  1  0.05915947  3.27165707  12.69161818  1
  Mo  Mo49  1  1.74725093  4.72597180  14.24963522  1
  Mo  Mo50  1  3.09897544  0.06526563  12.79716735  1
  Mo  Mo51  1  3.22942747  3.11276733  12.63938970  1
  Mo  Mo52  1  4.88954820  1.64815584  14.21448526  1
  Mo  Mo53  1  4.76116148  4.78760338  14.14120653  1
  Mo  Mo54  1  6.30474122  -0.07770286  12.62588576  1
  Mo  Mo55  1  7.88410641  1.58684200  14.15838434  1
  Mo  Mo56  1  6.29595373  3.14585198  12.58577112  1
  Mo  Mo57  1  8.01693156  4.66091458  14.28756541  1
  Mo  Mo58  1  -0.04493962  6.27154735  -0.00402331  1
  Mo  Mo59  1  1.55355876  7.82344790  1.44726488  1
  Mo  Mo60  1  -0.08606537  6.30971584  3.23780785  1
  Mo  Mo61  1  -0.05607144  9.50709131  0.00892800  1
  Mo  Mo62  1  1.51915350  11.13747358  1.62030397  1
  Mo  Mo63  1  0.00833360  9.53214310  3.13628007  1
  Mo  Mo64  1  3.17166834  6.36616429  -0.14093148  1
  Mo  Mo65  1  3.14325049  6.37452482  3.03321324  1
  Mo  Mo66  1  3.11935050  9.51198649  0.01274275  1
  Mo  Mo67  1  3.01804116  9.58391482  3.10467490  1
  Mo  Mo68  1  4.63204991  8.12549926  1.52585582  1
  Mo  Mo69  1  4.68399043  11.11612544  1.51573780  1
  Mo  Mo70  1  6.33229522  6.17581832  -0.00304013  1
  Mo  Mo71  1  7.95102042  8.03975917  1.71476204  1
  Mo  Mo72  1  6.28652084  6.40760947  3.05771892  1
  Mo  Mo73  1  6.27247078  9.50849135  0.03773646  1
  Mo  Mo74  1  7.99117478  11.32156406  1.54894160  1
  Mo  Mo75  1  6.25689160  9.47247753  3.18514249  1
  Mo  Mo76  1  1.54086903  7.84735782  4.67445824  1
  Mo  Mo77  1  0.05884242  6.23260437  6.25616676  1
  Mo  Mo78  1  1.64898991  11.04205236  4.82712227  1
  Mo  Mo79  1  -0.10900559  9.43296858  6.21312295  1
  Mo  Mo80  1  3.10294719  6.26884656  6.29369977  1
  Mo  Mo81  1  3.25617718  9.53411905  6.50399384  1
  Mo  Mo82  1  4.81416444  7.98995347  4.74196801  1
  Mo  Mo83  1  4.74220632  10.98267474  4.79898244  1
  Mo  Mo84  1  7.99660614  7.89460175  4.72490936  1
  Mo  Mo85  1  6.22979436  6.37424680  6.20408723  1
  Mo  Mo86  1  7.97732331  11.15048105  4.75537266  1
  Mo  Mo87  1  6.49101616  9.48138418  6.29144580  1
  Mo  Mo88  1  1.54892175  7.81791725  7.83946397  1
  Mo  Mo89  1  -0.05912650  6.23571226  9.35094208  1
  Mo  Mo90  1  1.44149592  7.86970883  11.02527173  1
  Mo  Mo91  1  1.57857084  10.93143921  7.88168364  1
  Mo  Mo92  1  -0.06739628  9.55160466  9.42206613  1
  Mo  Mo93  1  1.56923723  10.95864568  11.14392767  1
  Mo  Mo94  1  3.27074357  6.40333984  9.46128714  1
  Mo  Mo95  1  3.03250825  9.42820248  9.51720933  1
  Mo  Mo96  1  4.77999749  7.90117499  7.83775612  1
  Mo  Mo97  1  4.76261117  7.94984875  11.04383965  1
  Mo  Mo98  1  4.69738515  11.03212299  8.13363141  1
  Mo  Mo99  1  4.68276912  11.08981262  11.15197046  1
  Mo  Mo100  1  7.83998030  7.79767127  7.78582553  1
  Mo  Mo101  1  6.37928099  6.36967929  9.48687512  1
  Mo  Mo102  1  7.86122915  7.89334072  10.96599341  1
  Mo  Mo103  1  7.79395768  11.19714908  7.71453267  1
  Mo  Mo104  1  6.20646035  9.47217965  9.42768616  1
  Mo  Mo105  1  7.81028156  10.87563616  11.06776942  1
  Mo  Mo106  1  0.01958548  6.43145981  12.67444037  1
  Mo  Mo107  1  1.68309729  7.96693719  14.16583136  1
  Mo  Mo108  1  0.01889261  9.57901965  12.53185465  1
  Mo  Mo109  1  1.38524605  11.21899369  14.39430611  1
  Mo  Mo110  1  3.20158552  6.45985780  12.70770375  1
  Mo  Mo111  1  3.12747272  9.53150762  12.79180549  1
  Mo  Mo112  1  4.89288447  8.02235299  14.38695837  1
  Mo  Mo113  1  4.55346890  11.06786872  14.34535432  1
  Mo  Mo114  1  6.24200748  6.31497840  12.66192937  1
  Mo  Mo115  1  7.85597651  7.89336058  14.20415872  1
  Mo  Mo116  1  6.23810524  9.47893162  12.68754714  1
  Mo  Mo117  1  7.90067852  11.20221306  14.14478110  1
