# generated using pymatgen
data_Mo
_symmetry_space_group_name_H-M   'P 1'
_cell_length_a   9.49048941
_cell_length_b   12.65398587
_cell_length_c   15.81748234
_cell_angle_alpha   90.00000000
_cell_angle_beta   90.00000000
_cell_angle_gamma   90.00000000
_symmetry_Int_Tables_number   1
_chemical_formula_structural   Mo
_chemical_formula_sum   Mo118
_cell_volume   1899.56129654
_cell_formula_units_Z   118
loop_
 _symmetry_equiv_pos_site_id
 _symmetry_equiv_pos_as_xyz
  1  'x, y, z'
loop_
 _atom_site_type_symbol
 _atom_site_label
 _atom_site_symmetry_multiplicity
 _atom_site_fract_x
 _atom_site_fract_y
 _atom_site_fract_z
 _atom_site_occupancy
  Mo  Mo0  1  1.52154648  1.58056664  1.71201161  1
  Mo  Mo1  1  -0.04046048  2.92458596  -0.01560460  1
  Mo  Mo2  1  1.75581997  4.70145619  1.51025679  1
  Mo  Mo3  1  0.14391129  3.05968493  3.18562903  1
  Mo  Mo4  1  3.14138377  0.12150567  0.02486373  1
  Mo  Mo5  1  3.03684739  -0.04653924  3.08298916  1
  Mo  Mo6  1  3.11982711  3.17638479  -0.06500747  1
  Mo  Mo7  1  3.28972852  3.29419673  3.11785117  1
  Mo  Mo8  1  4.68387128  1.59875724  1.50452754  1
  Mo  Mo9  1  4.75482654  4.73617919  1.60780289  1
  Mo  Mo10  1  6.27372188  -0.00706714  0.19044030  1
  Mo  Mo11  1  7.92981129  1.44454423  1.66380453  1
  Mo  Mo12  1  6.32600993  0.04177245  3.08026851  1
  Mo  Mo13  1  6.37438581  3.19523073  -0.07824679  1
  Mo  Mo14  1  7.97986523  4.68814091  1.45401685  1
  Mo  Mo15  1  6.37928099  3.16192763  3.08512397  1
  Mo  Mo16  1  1.61945004  1.70485253  4.84452845  1
  Mo  Mo17  1  0.03100614  0.00827485  6.39848438  1
  Mo  Mo18  1  1.74707220  4.73891970  4.91511632  1
  Mo  Mo19  1  0.11336260  3.13055083  6.24244437  1
  Mo  Mo20  1  3.23271409  0.02064723  6.25821221  1
  Mo  Mo21  1  3.18251121  3.20317422  6.37303541  1
  Mo  Mo22  1  4.73421318  1.67539210  4.64275377  1
  Mo  Mo23  1  4.93629566  4.65707192  4.68063431  1
  Mo  Mo24  1  7.93069500  1.43091121  4.73453092  1
  Mo  Mo25  1  6.39212959  0.05626754  6.22347928  1
  Mo  Mo26  1  8.10887750  4.61495154  4.61687784  1
  Mo  Mo27  1  6.36615436  3.12506982  6.27290767  1
  Mo  Mo28  1  1.49370453  1.52471395  7.90822484  1
  Mo  Mo29  1  -0.07218988  0.02889605  9.56826614  1
  Mo  Mo30  1  1.57430121  1.54013426  11.10540173  1
  Mo  Mo31  1  1.57690270  4.83747860  7.97557574  1
  Mo  Mo32  1  -0.11117317  3.20145644  9.57140382  1
  Mo  Mo33  1  1.44473289  4.80436416  11.01355508  1
  Mo  Mo34  1  3.11818876  0.05631431  9.62283794  1
  Mo  Mo35  1  3.15297134  3.22200030  9.45883458  1
  Mo  Mo36  1  4.79641073  1.63173267  7.97090894  1
  Mo  Mo37  1  4.77108092  1.60846816  11.15345987  1
  Mo  Mo38  1  4.72050072  4.85533160  7.97832618  1
  Mo  Mo39  1  4.73358763  4.71986524  11.11741626  1
  Mo  Mo40  1  7.91176963  1.56328954  7.85930285  1
  Mo  Mo41  1  6.25302908  -0.04549874  9.49860170  1
  Mo  Mo42  1  7.81444197  1.51034615  11.13231031  1
  Mo  Mo43  1  7.82846224  4.70257821  7.87135710  1
  Mo  Mo44  1  6.29851551  3.01989796  9.50636646  1
  Mo  Mo45  1  7.78072184  4.74951433  10.96787999  1
  Mo  Mo46  1  -0.13170214  -0.03367029  12.71505148  1
  Mo  Mo47  1  1.49432015  1.41604695  14.28657247  1
  Mo  Mo48  1  -0.02643277  3.06586100  12.71385996  1
  Mo  Mo49  1  1.57962335  4.67801296  14.18370422  1
  Mo  Mo50  1  3.07550241  -0.05878503  12.72925048  1
  Mo  Mo51  1  3.18146862  3.16771645  12.67146156  1
  Mo  Mo52  1  4.70642088  1.65305102  14.20207355  1
  Mo  Mo53  1  4.74212688  4.78962898  14.26969254  1
  Mo  Mo54  1  6.25534262  -0.04812903  12.67602907  1
  Mo  Mo55  1  7.80309270  1.61154627  14.27753674  1
  Mo  Mo56  1  6.33365554  3.18885607  12.73322223  1
  Mo  Mo57  1  7.82158118  4.74649580  14.25350768  1
  Mo  Mo58  1  -0.06467275  6.25146024  -0.12748216  1
  Mo  Mo59  1  1.63788888  7.85743613  1.48251414  1
  Mo  Mo60  1  0.09202002  6.22012315  3.27881614  1
  Mo  Mo61  1  0.08913454  9.47639963  0.02830813  1
  Mo  Mo62  1  1.44056256  11.12069295  1.72684608  1
  Mo  Mo63  1  0.02357262  9.45510114  3.17287972  1
  Mo  Mo64  1  3.19114976  6.27987809  -0.09077458  1
  Mo  Mo65  1  3.21802855  6.19732533  3.04012408  1
  Mo  Mo66  1  3.18896530  9.47636984  0.00497767  1
  Mo  Mo67  1  3.07443004  9.50425151  3.17875791  1
  Mo  Mo68  1  4.83496647  7.88011480  1.51787261  1
  Mo  Mo69  1  4.71779993  11.12794139  1.55392615  1
  Mo  Mo70  1  6.28265831  6.37893346  -0.00578777  1
  Mo  Mo71  1  8.00939517  7.95526026  1.66008101  1
  Mo  Mo72  1  6.43747701  6.38118742  3.06727097  1
  Mo  Mo73  1  6.38552656  9.51521353  0.05071454  1
  Mo  Mo74  1  8.13303565  10.97145456  1.36022405  1
  Mo  Mo75  1  6.27073314  9.39188086  3.22839481  1
  Mo  Mo76  1  1.65530499  7.86604489  4.64119486  1
  Mo  Mo77  1  0.13135858  6.41982259  6.25033822  1
  Mo  Mo78  1  1.59924378  11.14392767  4.76572899  1
  Mo  Mo79  1  0.00318313  9.52616562  6.25344611  1
  Mo  Mo80  1  3.21679731  6.43546135  6.16546199  1
  Mo  Mo81  1  3.19405906  9.50518487  6.19291669  1
  Mo  Mo82  1  4.71909075  7.81944637  4.55125465  1
  Mo  Mo83  1  4.80279532  11.14889236  4.74129281  1
  Mo  Mo84  1  7.95775253  7.87160534  4.72813640  1
  Mo  Mo85  1  6.27903409  6.38238888  6.19230107  1
  Mo  Mo86  1  7.79657904  11.09467801  4.76235300  1
  Mo  Mo87  1  6.39641907  9.53980857  6.25598803  1
  Mo  Mo88  1  1.68248167  7.95790147  7.84997917  1
  Mo  Mo89  1  -0.20107267  6.34676231  9.31928725  1
  Mo  Mo90  1  1.44514000  7.94574792  11.07382634  1
  Mo  Mo91  1  1.64110599  11.13002656  7.95398930  1
  Mo  Mo92  1  -0.05101520  9.61690018  9.59399313  1
  Mo  Mo93  1  1.48299075  11.00878898  11.18106351  1
  Mo  Mo94  1  3.09613564  6.38324280  9.58674469  1
  Mo  Mo95  1  3.13929860  9.45087123  9.49824424  1
  Mo  Mo96  1  4.68739621  7.98617038  7.96042353  1
  Mo  Mo97  1  4.70706628  7.88279573  11.18146068  1
  Mo  Mo98  1  4.66960278  11.22137674  7.86791161  1
  Mo  Mo99  1  4.66989073  11.08335853  11.10887701  1
  Mo  Mo100  1  7.79994509  8.06648903  7.89964587  1
  Mo  Mo101  1  6.43750680  6.27796172  9.49287245  1
  Mo  Mo102  1  7.80253666  7.97944820  10.94375162  1
  Mo  Mo103  1  7.82978284  11.15931819  7.95652129  1
  Mo  Mo104  1  6.18482425  9.52162790  9.54879465  1
  Mo  Mo105  1  7.99501744  11.03500251  11.16269418  1
  Mo  Mo106  1  0.00359211  6.35008865  12.70442706  1
  Mo  Mo107  1  1.54432445  7.90293249  14.29123927  1
  Mo  Mo108  1  0.05097350  9.41558226  12.78882668  1
  Mo  Mo109  1  1.55556449  10.99250482  14.21508102  1
  Mo  Mo110  1  3.17801320  6.23298169  12.67741918  1
  Mo  Mo111  1  3.23788729  9.51599795  12.73510881  1
  Mo  Mo112  1  4.78159612  7.88164393  14.36700035  1
  Mo  Mo113  1  4.83159048  11.14670790  14.21825842  1
  Mo  Mo114  1  6.41270324  6.46082095  12.68893725  1
  Mo  Mo115  1  7.96740387  7.92363522  14.25976318  1
  Mo  Mo116  1  6.36058399  9.49476896  12.70820022  1
  Mo  Mo117  1  7.88147513  11.02348445  14.26234481  1
