# generated using pymatgen
data_Mo
_symmetry_space_group_name_H-M   'P 1'
_cell_length_a   9.48751059
_cell_length_b   12.65001413
_cell_length_c   15.81251766
_cell_angle_alpha   90.00000000
_cell_angle_beta   90.00000000
_cell_angle_gamma   90.00000000
_symmetry_Int_Tables_number   1
_chemical_formula_structural   Mo
_chemical_formula_sum   Mo117
_cell_volume   1897.77319376
_cell_formula_units_Z   117
loop_
 _symmetry_equiv_pos_site_id
 _symmetry_equiv_pos_as_xyz
  1  'x, y, z'
loop_
 _atom_site_type_symbol
 _atom_site_label
 _atom_site_symmetry_multiplicity
 _atom_site_fract_x
 _atom_site_fract_y
 _atom_site_fract_z
 _atom_site_occupancy
  Mo  Mo0  1  1.38438220  1.71919054  1.37559471  1
  Mo  Mo1  1  1.57728995  4.75393290  1.69210322  1
  Mo  Mo2  1  3.06792631  3.06845256  3.12064132  1
  Mo  Mo3  1  -0.13744429  3.22776926  3.19108025  1
  Mo  Mo4  1  4.57715044  1.58434973  1.53121768  1
  Mo  Mo5  1  3.03194228  3.14238663  -0.12390858  1
  Mo  Mo6  1  4.81500844  4.59277927  1.51703855  1
  Mo  Mo7  1  7.73225659  1.74443099  1.57276216  1
  Mo  Mo8  1  7.92422105  4.73375642  1.45081960  1
  Mo  Mo9  1  6.30304330  3.03624170  2.97534488  1
  Mo  Mo10  1  6.33649534  -0.01719439  3.23570283  1
  Mo  Mo11  1  6.27622408  6.22079835  3.17005978  1
  Mo  Mo12  1  9.58919725  0.06692880  6.50830319  1
  Mo  Mo13  1  6.29258768  6.45452573  0.02638461  1
  Mo  Mo14  1  3.12504003  0.03205974  6.20938951  1
  Mo  Mo15  1  4.71816732  1.38609998  4.77680023  1
  Mo  Mo16  1  1.53749304  1.58337665  4.58114205  1
  Mo  Mo17  1  1.60061403  4.72455190  4.76100261  1
  Mo  Mo18  1  3.18624465  3.16887819  6.15077645  1
  Mo  Mo19  1  9.40822460  3.03614240  6.30111701  1
  Mo  Mo20  1  4.70327327  4.68047544  4.64601060  1
  Mo  Mo21  1  3.14059935  6.16889755  3.06704259  1
  Mo  Mo22  1  4.80501949  4.78195357  7.76454690  1
  Mo  Mo23  1  1.58149007  4.81961566  7.92638566  1
  Mo  Mo24  1  7.84406127  4.63642876  4.85785366  1
  Mo  Mo25  1  2.96404526  0.03417430  3.06726104  1
  Mo  Mo26  1  7.95833836  1.50475592  4.65237533  1
  Mo  Mo27  1  6.26149883  3.00336556  6.25325745  1
  Mo  Mo28  1  1.58079501  1.59076410  11.13608347  1
  Mo  Mo29  1  1.55484958  4.70930039  11.07620939  1
  Mo  Mo30  1  3.14007309  3.23607022  9.52670181  1
  Mo  Mo31  1  0.18231212  3.23798658  9.40683448  1
  Mo  Mo32  1  3.08477644  -0.04227746  9.49619879  1
  Mo  Mo33  1  4.69773268  1.69007763  11.05416619  1
  Mo  Mo34  1  4.77743571  4.77689953  11.01971129  1
  Mo  Mo35  1  8.04844737  1.58600793  10.97532701  1
  Mo  Mo36  1  6.28236043  3.16288085  9.42372434  1
  Mo  Mo37  1  7.86115964  4.73404438  10.98356839  1
  Mo  Mo38  1  7.91958404  4.62543695  7.94076338  1
  Mo  Mo39  1  6.38879332  -0.10155062  12.56313216  1
  Mo  Mo40  1  -0.00971290  3.16761716  12.82824627  1
  Mo  Mo41  1  4.77569807  1.39966349  14.19909474  1
  Mo  Mo42  1  3.00069456  3.31604134  12.66113502  1
  Mo  Mo43  1  1.51070361  1.47989278  14.35419146  1
  Mo  Mo44  1  1.52239048  4.66067628  14.36501447  1
  Mo  Mo45  1  4.67492492  4.69959940  14.24844370  1
  Mo  Mo46  1  3.25291042  -0.01225969  12.79597583  1
  Mo  Mo47  1  7.92312882  1.54445353  14.47036506  1
  Mo  Mo48  1  6.26711885  6.38509960  12.58656547  1
  Mo  Mo49  1  6.23395476  3.13362893  15.69465607  1
  Mo  Mo50  1  6.47950802  3.15373590  12.71594513  1
  Mo  Mo51  1  8.13252925  4.89478098  14.22272664  1
  Mo  Mo52  1  3.14768892  6.34713962  9.44274901  1
  Mo  Mo53  1  6.20785046  0.12867169  9.50384440  1
  Mo  Mo54  1  4.73932680  1.61871527  7.85046571  1
  Mo  Mo55  1  1.72446303  1.76680186  7.82950482  1
  Mo  Mo56  1  7.89469112  1.55286370  7.92855026  1
  Mo  Mo57  1  1.74364657  7.86388029  1.65714192  1
  Mo  Mo58  1  1.60181549  11.02993853  1.63994426  1
  Mo  Mo59  1  3.16535326  9.51179783  3.16163968  1
  Mo  Mo60  1  4.81333038  7.72998277  7.84925433  1
  Mo  Mo61  1  9.45187410  9.48456157  3.23776814  1
  Mo  Mo62  1  4.75276123  11.09020979  1.67015932  1
  Mo  Mo63  1  7.90788725  7.90655671  4.77148802  1
  Mo  Mo64  1  3.15976303  9.34252197  -0.02421505  1
  Mo  Mo65  1  9.45151664  9.54491227  0.05500681  1
  Mo  Mo66  1  3.19592578  6.23336893  -0.11783379  1
  Mo  Mo67  1  4.80877280  7.91010149  1.51214337  1
  Mo  Mo68  1  7.88061127  7.86667044  1.59031728  1
  Mo  Mo69  1  7.94176625  11.16090689  1.55156296  1
  Mo  Mo70  1  6.37528938  9.44412919  3.15341816  1
  Mo  Mo71  1  6.24605866  12.66560323  0.11501484  1
  Mo  Mo72  1  9.44711793  6.25097370  6.32556311  1
  Mo  Mo73  1  4.68303722  10.96420612  4.82039016  1
  Mo  Mo74  1  1.52584590  7.92698142  4.73963461  1
  Mo  Mo75  1  1.54965652  11.13330325  4.84963214  1
  Mo  Mo76  1  3.26227382  9.40912817  6.40887050  1
  Mo  Mo77  1  4.90887075  7.85843900  4.64263462  1
  Mo  Mo78  1  1.69947081  11.04711634  7.94917356  1
  Mo  Mo79  1  9.51471706  9.50161030  6.44589711  1
  Mo  Mo80  1  6.40830453  9.44172628  6.25324752  1
  Mo  Mo81  1  7.81546469  10.97036233  4.79282623  1
  Mo  Mo82  1  9.33993041  6.37603408  3.12991535  1
  Mo  Mo83  1  3.16479722  6.32044948  6.23241571  1
  Mo  Mo84  1  6.34136073  6.33180868  6.31012294  1
  Mo  Mo85  1  6.42954344  12.62360201  6.33405272  1
  Mo  Mo86  1  1.54481099  7.95268855  8.01431021  1
  Mo  Mo87  1  8.04871546  7.91737972  7.93497456  1
  Mo  Mo88  1  6.26275986  9.52999836  0.12913639  1
  Mo  Mo89  1  7.85088275  11.16696380  7.89103711  1
  Mo  Mo90  1  1.57302032  8.02566940  11.11384169  1
  Mo  Mo91  1  1.71165415  11.26159068  11.13042373  1
  Mo  Mo92  1  3.12462299  9.45669977  9.44868677  1
  Mo  Mo93  1  4.79911152  11.11830990  11.05069091  1
  Mo  Mo94  1  -0.00998418  9.55915098  9.53816030  1
  Mo  Mo95  1  9.52915436  6.25108292  15.95947230  1
  Mo  Mo96  1  9.41626738  6.34732828  9.45549831  1
  Mo  Mo97  1  0.08953390  12.57157212  12.64375863  1
  Mo  Mo98  1  4.76212463  7.95120908  11.05366972  1
  Mo  Mo99  1  4.79208153  10.91396352  7.92806372  1
  Mo  Mo100  1  7.85586729  8.05544757  11.03897426  1
  Mo  Mo101  1  6.25541213  9.54442573  9.55167417  1
  Mo  Mo102  1  8.04717641  11.19873778  10.85538025  1
  Mo  Mo103  1  3.15629768  12.56829543  15.81043249  1
  Mo  Mo104  1  7.86538955  8.02968087  14.24824511  1
  Mo  Mo105  1  -0.06104079  9.52500389  12.76440044  1
  Mo  Mo106  1  6.41826368  6.24178903  9.45870550  1
  Mo  Mo107  1  0.09657213  12.75298167  9.45925162  1
  Mo  Mo108  1  1.58188725  7.88241842  14.31010507  1
  Mo  Mo109  1  1.53850584  11.08742957  14.30603403  1
  Mo  Mo110  1  3.14172137  9.62679976  12.72319356  1
  Mo  Mo111  1  3.17122152  6.44580775  12.64276569  1
  Mo  Mo112  1  4.82114479  10.99081683  14.34654585  1
  Mo  Mo113  1  9.48961562  6.42694195  12.57335941  1
  Mo  Mo114  1  7.99059888  11.03132865  14.19710887  1
  Mo  Mo115  1  6.37853628  9.56568450  12.75020144  1
  Mo  Mo116  1  4.82135330  7.94327551  14.20773329  1
