# generated using pymatgen
data_Mo
_symmetry_space_group_name_H-M   'P 1'
_cell_length_a   9.48751059
_cell_length_b   12.65001413
_cell_length_c   15.81251766
_cell_angle_alpha   90.00000000
_cell_angle_beta   90.00000000
_cell_angle_gamma   90.00000000
_symmetry_Int_Tables_number   1
_chemical_formula_structural   Mo
_chemical_formula_sum   Mo117
_cell_volume   1897.77319376
_cell_formula_units_Z   117
loop_
 _symmetry_equiv_pos_site_id
 _symmetry_equiv_pos_as_xyz
  1  'x, y, z'
loop_
 _atom_site_type_symbol
 _atom_site_label
 _atom_site_symmetry_multiplicity
 _atom_site_fract_x
 _atom_site_fract_y
 _atom_site_fract_z
 _atom_site_occupancy
  Mo  Mo0  1  1.65975334  1.57168978  1.51955068  1
  Mo  Mo1  1  1.54920970  4.75982101  1.66824295  1
  Mo  Mo2  1  3.26543135  3.20850629  3.09589733  1
  Mo  Mo3  1  3.10370182  6.30425469  3.19922233  1
  Mo  Mo4  1  -0.02117497  6.28640168  3.21320288  1
  Mo  Mo5  1  9.51295956  3.31730237  3.14405477  1
  Mo  Mo6  1  4.62498020  4.70056255  7.68310623  1
  Mo  Mo7  1  3.30778011  0.08834099  6.40478953  1
  Mo  Mo8  1  4.93521336  1.47155211  1.64553449  1
  Mo  Mo9  1  4.78620334  4.60086177  1.53034390  1
  Mo  Mo10  1  8.20411006  1.47654659  1.18410686  1
  Mo  Mo11  1  7.93388233  4.68680045  1.59270033  1
  Mo  Mo12  1  6.50199804  3.07352647  3.17071512  1
  Mo  Mo13  1  6.17793327  3.19332429  6.29530833  1
  Mo  Mo14  1  9.36340343  6.44046575  6.40728180  1
  Mo  Mo15  1  0.00806484  3.30866382  6.24436074  1
  Mo  Mo16  1  0.12328005  6.43323717  0.00362544  1
  Mo  Mo17  1  4.83641615  1.46132487  4.55641792  1
  Mo  Mo18  1  1.60642271  1.57425156  4.61485225  1
  Mo  Mo19  1  1.60594610  4.86517160  4.69903343  1
  Mo  Mo20  1  3.09970028  3.21289507  6.37531917  1
  Mo  Mo21  1  3.10731611  6.27993766  6.31536565  1
  Mo  Mo22  1  4.75531308  4.68251096  4.63687559  1
  Mo  Mo23  1  -0.04986975  0.08027238  6.25266169  1
  Mo  Mo24  1  1.46480014  4.81841421  7.86448598  1
  Mo  Mo25  1  4.75880822  1.71316341  7.96402789  1
  Mo  Mo26  1  6.28012632  0.00477125  6.24261317  1
  Mo  Mo27  1  7.75093373  4.83585018  7.79249807  1
  Mo  Mo28  1  6.21339104  6.33315907  6.22627936  1
  Mo  Mo29  1  7.80947728  4.81004375  4.74208716  1
  Mo  Mo30  1  7.98781865  1.48400354  4.46469043  1
  Mo  Mo31  1  1.57663461  1.74023087  7.82473872  1
  Mo  Mo32  1  7.80246715  1.65412339  7.83081550  1
  Mo  Mo33  1  1.38314103  1.62483176  10.88904081  1
  Mo  Mo34  1  1.54255702  4.77327531  11.09457872  1
  Mo  Mo35  1  3.19511157  3.27139890  9.48601126  1
  Mo  Mo36  1  6.41728067  0.03090744  12.68178810  1
  Mo  Mo37  1  4.75590884  4.72480013  11.06985459  1
  Mo  Mo38  1  4.74379501  1.67957236  11.14819730  1
  Mo  Mo39  1  9.56254682  3.17654366  9.58408362  1
  Mo  Mo40  1  7.90101612  1.69522105  11.14650931  1
  Mo  Mo41  1  6.31163221  3.26716899  9.51831149  1
  Mo  Mo42  1  7.91160083  4.76205512  10.92031832  1
  Mo  Mo43  1  6.27494319  6.27918303  9.50391391  1
  Mo  Mo44  1  3.19125898  6.32860149  12.61327547  1
  Mo  Mo45  1  -0.09912339  3.15241529  12.82904062  1
  Mo  Mo46  1  9.48220831  6.10795109  12.53185465  1
  Mo  Mo47  1  3.00419963  3.15190890  12.63899253  1
  Mo  Mo48  1  1.35157557  1.50885675  14.69625817  1
  Mo  Mo49  1  1.60437726  4.78843745  14.29014704  1
  Mo  Mo50  1  4.61002658  1.65828380  14.21418738  1
  Mo  Mo51  1  6.27292753  3.10900410  12.80977765  1
  Mo  Mo52  1  7.84312791  1.66738903  14.28667176  1
  Mo  Mo53  1  9.55369976  -0.14385171  12.61516205  1
  Mo  Mo54  1  4.73688418  4.73155210  14.31209094  1
  Mo  Mo55  1  8.02409063  4.69515104  14.29302656  1
  Mo  Mo56  1  3.32835376  0.19818223  9.41759792  1
  Mo  Mo57  1  6.52242275  -0.06983692  9.62271879  1
  Mo  Mo58  1  3.00950191  3.16484686  15.86057580  1
  Mo  Mo59  1  6.32014167  3.11320422  15.87070375  1
  Mo  Mo60  1  1.57051812  7.97080965  1.63052129  1
  Mo  Mo61  1  1.49909618  11.04503117  1.61226118  1
  Mo  Mo62  1  3.01266938  9.38601260  3.19700808  1
  Mo  Mo63  1  4.73088684  10.88675706  1.67130120  1
  Mo  Mo64  1  9.42032849  9.39109644  -0.09076723  1
  Mo  Mo65  1  6.37836748  6.24020034  3.02998619  1
  Mo  Mo66  1  6.21625070  12.60870796  -0.08327214  1
  Mo  Mo67  1  4.66447923  7.88934912  1.59330602  1
  Mo  Mo68  1  -0.01711684  9.49001280  3.10588628  1
  Mo  Mo69  1  7.87817858  7.93828104  1.64599124  1
  Mo  Mo70  1  7.84513364  11.03976861  1.67323743  1
  Mo  Mo71  1  6.32943556  9.50576077  3.18834968  1
  Mo  Mo72  1  6.40095679  9.55214085  -0.06324749  1
  Mo  Mo73  1  6.41883959  12.56064982  3.07187819  1
  Mo  Mo74  1  4.80891181  10.93471590  4.85325636  1
  Mo  Mo75  1  4.66441965  7.78524963  4.66052734  1
  Mo  Mo76  1  1.65756888  7.91216680  4.81916884  1
  Mo  Mo77  1  1.69289757  11.15385704  4.84457809  1
  Mo  Mo78  1  3.03225009  9.36202325  6.43413081  1
  Mo  Mo79  1  3.18335520  12.58934569  3.11333330  1
  Mo  Mo80  1  7.97251750  11.04632199  4.75851034  1
  Mo  Mo81  1  -0.11107288  9.44969956  6.28668963  1
  Mo  Mo82  1  7.96076113  7.75263166  4.79434542  1
  Mo  Mo83  1  7.84735782  11.19327663  8.04286707  1
  Mo  Mo84  1  6.26960119  9.35732666  6.20549720  1
  Mo  Mo85  1  4.72480013  11.02805195  7.99970411  1
  Mo  Mo86  1  6.31629901  6.28404842  -0.07791734  1
  Mo  Mo87  1  3.17440884  12.56710391  0.16853215  1
  Mo  Mo88  1  1.58658384  7.90025156  10.96668846  1
  Mo  Mo89  1  1.74261392  11.10421020  11.03450604  1
  Mo  Mo90  1  3.16936472  9.44896479  9.48793756  1
  Mo  Mo91  1  4.85652312  11.00084549  11.19079429  1
  Mo  Mo92  1  3.06675464  12.66848275  12.66053926  1
  Mo  Mo93  1  4.67376319  7.85347431  11.12516117  1
  Mo  Mo94  1  3.23854263  6.32341836  9.54528958  1
  Mo  Mo95  1  6.38020442  9.47432439  12.63879394  1
  Mo  Mo96  1  1.45946807  11.06915954  7.82660544  1
  Mo  Mo97  1  -0.01261645  9.64203141  9.58409355  1
  Mo  Mo98  1  9.43458707  6.38617197  9.48941703  1
  Mo  Mo99  1  6.47122693  6.28406828  12.62538930  1
  Mo  Mo100  1  7.97063092  7.88148506  11.02765478  1
  Mo  Mo101  1  6.33515488  9.44684984  9.59378461  1
  Mo  Mo102  1  7.97490055  11.01752682  11.19824131  1
  Mo  Mo103  1  0.01348974  12.78118107  9.46228007  1
  Mo  Mo104  1  7.92460830  7.84142999  14.26016035  1
  Mo  Mo105  1  4.73031093  7.79141577  14.23613128  1
  Mo  Mo106  1  1.65587096  7.90897948  14.13018493  1
  Mo  Mo107  1  1.86282877  11.13737429  14.17516497  1
  Mo  Mo108  1  3.24199805  9.48420412  12.73610174  1
  Mo  Mo109  1  4.72473063  11.09805399  14.24258537  1
  Mo  Mo110  1  7.98207948  11.16279347  14.22352099  1
  Mo  Mo111  1  0.17131138  9.33435010  12.59768636  1
  Mo  Mo112  1  3.12552657  9.59337751  15.74033116  1
  Mo  Mo113  1  3.11975760  6.41544374  15.86971081  1
  Mo  Mo114  1  4.64972419  7.87654023  7.83649509  1
  Mo  Mo115  1  7.87675868  8.03276890  7.99551391  1
  Mo  Mo116  1  1.42167690  8.06461238  8.02751626  1
