# generated using pymatgen
data_Mo
_symmetry_space_group_name_H-M   'P 1'
_cell_length_a   9.48751059
_cell_length_b   12.65001413
_cell_length_c   15.81251766
_cell_angle_alpha   90.00000000
_cell_angle_beta   90.00000000
_cell_angle_gamma   90.00000000
_symmetry_Int_Tables_number   1
_chemical_formula_structural   Mo
_chemical_formula_sum   Mo117
_cell_volume   1897.77319376
_cell_formula_units_Z   117
loop_
 _symmetry_equiv_pos_site_id
 _symmetry_equiv_pos_as_xyz
  1  'x, y, z'
loop_
 _atom_site_type_symbol
 _atom_site_label
 _atom_site_symmetry_multiplicity
 _atom_site_fract_x
 _atom_site_fract_y
 _atom_site_fract_z
 _atom_site_occupancy
  Mo  Mo0  1  1.43380066  4.74894836  1.67963194  1
  Mo  Mo1  1  -0.12126240  2.95884228  -0.05264173  1
  Mo  Mo2  1  2.97295191  3.25921557  3.21735336  1
  Mo  Mo3  1  0.14467088  6.33703153  3.18798229  1
  Mo  Mo4  1  3.09051562  -0.06756647  0.03661702  1
  Mo  Mo5  1  4.75516414  4.65302074  1.66501591  1
  Mo  Mo6  1  1.75279152  1.53463339  4.72226815  1
  Mo  Mo7  1  2.97767829  6.44645316  6.30512847  1
  Mo  Mo8  1  4.67733776  4.79931011  4.72862294  1
  Mo  Mo9  1  4.80696565  1.68543069  4.91775753  1
  Mo  Mo10  1  1.55945680  4.86863695  8.00582060  1
  Mo  Mo11  1  1.54373862  4.61824809  4.81583258  1
  Mo  Mo12  1  3.21160425  3.23932705  6.28076180  1
  Mo  Mo13  1  3.14483919  6.19165566  3.23171122  1
  Mo  Mo14  1  1.50768508  1.62402748  11.01891694  1
  Mo  Mo15  1  2.86974606  3.06212756  15.64163324  1
  Mo  Mo16  1  1.58528309  4.74969306  11.00362571  1
  Mo  Mo17  1  3.22159320  3.17965155  9.50889845  1
  Mo  Mo18  1  4.78687854  4.82013199  11.05764147  1
  Mo  Mo19  1  0.04696084  3.25890776  9.54728539  1
  Mo  Mo20  1  -0.02964542  6.33617760  12.61158747  1
  Mo  Mo21  1  1.50323673  1.57908716  14.16553348  1
  Mo  Mo22  1  3.09187594  3.06357724  12.66510677  1
  Mo  Mo23  1  4.76158844  4.62973637  14.29362232  1
  Mo  Mo24  1  1.53272695  4.75700107  14.36898622  1
  Mo  Mo25  1  4.80570462  1.53432558  11.13737429  1
  Mo  Mo26  1  -0.03557543  3.21340147  12.72795966  1
  Mo  Mo27  1  3.23410420  6.47865410  9.48934753  1
  Mo  Mo28  1  3.14323063  0.15427357  9.55065144  1
  Mo  Mo29  1  3.17728836  -0.04127856  12.63065186  1
  Mo  Mo30  1  1.59127050  1.55316159  7.97439415  1
  Mo  Mo31  1  1.52358200  8.03721726  1.67018911  1
  Mo  Mo32  1  -0.05378391  6.40384624  6.39779926  1
  Mo  Mo33  1  1.40181817  11.13568630  1.68850879  1
  Mo  Mo34  1  -0.10527413  9.43677153  6.37136728  1
  Mo  Mo35  1  3.28446595  9.51552134  3.08584881  1
  Mo  Mo36  1  4.77184548  11.04940009  1.58640511  1
  Mo  Mo37  1  3.10069322  9.48517719  0.03742716  1
  Mo  Mo38  1  4.88023445  11.13787076  4.67259152  1
  Mo  Mo39  1  1.48515535  7.95232116  4.72848393  1
  Mo  Mo40  1  3.16045808  9.62344364  6.19625296  1
  Mo  Mo41  1  1.74161105  11.17153131  4.58633511  1
  Mo  Mo42  1  3.05537559  12.74275442  6.40546473  1
  Mo  Mo43  1  3.21682710  12.74761981  3.10723667  1
  Mo  Mo44  1  4.61950912  7.85748578  1.46773924  1
  Mo  Mo45  1  0.01206140  9.51487593  3.30030329  1
  Mo  Mo46  1  4.89929884  7.85315657  4.62273617  1
  Mo  Mo47  1  0.12960803  12.58984216  6.24492671  1
  Mo  Mo48  1  1.62524879  8.06450316  7.92841125  1
  Mo  Mo49  1  1.50165796  7.85194519  11.09060697  1
  Mo  Mo50  1  -0.13452208  9.65366863  9.53479424  1
  Mo  Mo51  1  1.56181999  11.15425421  10.99210764  1
  Mo  Mo52  1  3.03412674  9.66352849  9.43194585  1
  Mo  Mo53  1  1.55207928  7.87919137  14.24486913  1
  Mo  Mo54  1  3.15037977  6.23304126  12.74891063  1
  Mo  Mo55  1  4.69902350  7.98070923  7.94667135  1
  Mo  Mo56  1  1.57086565  11.10063563  14.28111132  1
  Mo  Mo57  1  4.68021728  7.83676319  14.33036098  1
  Mo  Mo58  1  3.06840292  9.36646168  12.65021271  1
  Mo  Mo59  1  3.18221333  6.31779834  15.82105691  1
  Mo  Mo60  1  1.52663032  11.09020979  7.98817611  1
  Mo  Mo61  1  8.08550377  4.89302348  4.86301693  1
  Mo  Mo62  1  6.21154418  3.03748287  0.12949782  1
  Mo  Mo63  1  7.84532230  4.71639989  1.64230745  1
  Mo  Mo64  1  6.29828714  3.20060251  3.19116962  1
  Mo  Mo65  1  6.27526093  6.24034928  3.12102856  1
  Mo  Mo66  1  9.43328632  0.11426319  0.15747877  1
  Mo  Mo67  1  9.54223134  3.18546023  6.47071060  1
  Mo  Mo68  1  8.10223475  1.62212104  4.79486175  1
  Mo  Mo69  1  4.75442937  4.85808203  7.97618143  1
  Mo  Mo70  1  9.48877162  2.81049753  3.06137292  1
  Mo  Mo71  1  6.38630105  3.14334978  6.32741990  1
  Mo  Mo72  1  4.67209505  1.54398685  1.63512851  1
  Mo  Mo73  1  6.28046392  6.35418947  -0.07341794  1
  Mo  Mo74  1  7.84014910  4.73830407  7.99391528  1
  Mo  Mo75  1  7.98352917  1.60757452  7.96395838  1
  Mo  Mo76  1  9.48571338  0.10114550  12.51656343  1
  Mo  Mo77  1  6.11830742  -0.04427336  15.82145409  1
  Mo  Mo78  1  7.95239067  1.68474556  11.17024050  1
  Mo  Mo79  1  6.31519685  6.41216705  9.44515191  1
  Mo  Mo80  1  6.33216614  3.22836503  9.58672483  1
  Mo  Mo81  1  7.83893772  4.80158393  11.15157329  1
  Mo  Mo82  1  4.68480464  1.48381488  14.32221890  1
  Mo  Mo83  1  7.88695614  1.49507479  14.40403689  1
  Mo  Mo84  1  6.32057857  3.14886058  12.66312089  1
  Mo  Mo85  1  6.27794186  -0.01877624  12.75476895  1
  Mo  Mo86  1  7.99613946  4.65742938  14.34406351  1
  Mo  Mo87  1  4.84417099  1.60857739  7.96158526  1
  Mo  Mo88  1  9.53895465  6.19026555  15.76366517  1
  Mo  Mo89  1  7.84242293  7.96321368  1.48584047  1
  Mo  Mo90  1  7.93321706  11.00720028  7.89940757  1
  Mo  Mo91  1  6.31756997  9.47138530  -0.01214769  1
  Mo  Mo92  1  7.99182019  11.00640593  1.70118860  1
  Mo  Mo93  1  6.42683273  9.48431334  3.03772117  1
  Mo  Mo94  1  6.40942655  12.72915119  6.31356843  1
  Mo  Mo95  1  7.94655220  7.96030438  4.67445824  1
  Mo  Mo96  1  6.27650210  6.32016153  6.29337210  1
  Mo  Mo97  1  7.94187547  11.22405767  4.80227899  1
  Mo  Mo98  1  9.37586479  9.56619090  -0.13984819  1
  Mo  Mo99  1  6.22030188  9.48792763  6.19358196  1
  Mo  Mo100  1  6.44404032  12.85684285  3.26579874  1
  Mo  Mo101  1  4.79785049  7.80864322  11.11374240  1
  Mo  Mo102  1  4.56617849  10.92131125  11.17421224  1
  Mo  Mo103  1  7.94811111  7.92347635  10.92915545  1
  Mo  Mo104  1  9.48966527  6.50558254  9.33586930  1
  Mo  Mo105  1  6.20188291  9.65985463  9.40868135  1
  Mo  Mo106  1  7.80296362  11.09040838  11.06925883  1
  Mo  Mo107  1  4.63036192  11.15316198  7.80508850  1
  Mo  Mo108  1  6.46015568  6.33548255  12.67046862  1
  Mo  Mo109  1  7.82900835  11.04840716  14.24119526  1
  Mo  Mo110  1  6.36281809  9.49156178  12.59252309  1
  Mo  Mo111  1  7.89150379  7.85732691  14.26631656  1
  Mo  Mo112  1  4.84480647  10.92558088  14.33621931  1
  Mo  Mo113  1  9.30680604  9.42470735  12.63700666  1
  Mo  Mo114  1  6.35190572  12.72279639  9.54710666  1
  Mo  Mo115  1  9.47941816  12.71435643  9.46375955  1
  Mo  Mo116  1  7.92700128  7.94689973  7.82285214  1
