# generated using pymatgen
data_Mo
_symmetry_space_group_name_H-M   'P 1'
_cell_length_a   9.48751059
_cell_length_b   12.65001413
_cell_length_c   15.81251766
_cell_angle_alpha   90.00000000
_cell_angle_beta   90.00000000
_cell_angle_gamma   90.00000000
_symmetry_Int_Tables_number   1
_chemical_formula_structural   Mo
_chemical_formula_sum   Mo117
_cell_volume   1897.77319376
_cell_formula_units_Z   117
loop_
 _symmetry_equiv_pos_site_id
 _symmetry_equiv_pos_as_xyz
  1  'x, y, z'
loop_
 _atom_site_type_symbol
 _atom_site_label
 _atom_site_symmetry_multiplicity
 _atom_site_fract_x
 _atom_site_fract_y
 _atom_site_fract_z
 _atom_site_occupancy
  Mo  Mo0  1  1.60550921  4.71206076  1.60224245  1
  Mo  Mo1  1  -0.15211294  -0.03636621  0.06118188  1
  Mo  Mo2  1  3.15143229  3.19155686  3.06139278  1
  Mo  Mo3  1  4.75785500  4.79119782  1.54957708  1
  Mo  Mo4  1  4.78038473  1.67096360  1.57486718  1
  Mo  Mo5  1  3.00576847  6.36119961  3.12567551  1
  Mo  Mo6  1  3.26270078  0.08438552  3.40047075  1
  Mo  Mo7  1  3.14302211  3.20946944  0.03338224  1
  Mo  Mo8  1  0.08104846  2.93561749  3.00292867  1
  Mo  Mo9  1  1.60801141  1.51402002  4.77276891  1
  Mo  Mo10  1  3.05315141  6.32517586  6.40147312  1
  Mo  Mo11  1  3.05454152  3.22011372  6.15641633  1
  Mo  Mo12  1  0.15092341  0.01065997  6.29503030  1
  Mo  Mo13  1  1.61942025  4.87412789  4.57932497  1
  Mo  Mo14  1  1.59460677  1.53571569  7.92038832  1
  Mo  Mo15  1  4.70812873  1.61481303  7.85922342  1
  Mo  Mo16  1  1.54200098  1.58813282  11.17967340  1
  Mo  Mo17  1  1.47017193  4.84411141  11.11830990  1
  Mo  Mo18  1  3.09459659  3.21067089  9.55512959  1
  Mo  Mo19  1  4.72066952  4.64936673  11.09527377  1
  Mo  Mo20  1  3.28689865  3.28960936  12.78972033  1
  Mo  Mo21  1  4.64143317  1.60068354  11.20846856  1
  Mo  Mo22  1  -0.03379103  3.01664112  9.48909929  1
  Mo  Mo23  1  1.47766860  1.46848394  14.37325585  1
  Mo  Mo24  1  1.54741248  4.81961566  14.17556214  1
  Mo  Mo25  1  4.71982552  1.52158620  14.32450265  1
  Mo  Mo26  1  -0.00437754  3.12540741  15.89413706  1
  Mo  Mo27  1  1.53584477  4.58898625  7.97522822  1
  Mo  Mo28  1  1.62280617  8.00803485  1.53152549  1
  Mo  Mo29  1  1.67523323  11.13916158  1.61530950  1
  Mo  Mo30  1  3.30596303  9.63520994  3.19018661  1
  Mo  Mo31  1  4.85070451  11.12059366  1.63865344  1
  Mo  Mo32  1  3.31676618  9.62244077  -0.02008910  1
  Mo  Mo33  1  2.93301599  12.84721136  0.15499445  1
  Mo  Mo34  1  4.79502062  7.95299636  4.74979235  1
  Mo  Mo35  1  1.46894069  7.80309270  7.93214469  1
  Mo  Mo36  1  1.49214562  11.16894968  4.76778437  1
  Mo  Mo37  1  1.59968067  7.98330079  4.87140725  1
  Mo  Mo38  1  3.12851531  9.38943823  6.35113123  1
  Mo  Mo39  1  4.73953532  7.90036078  1.45296434  1
  Mo  Mo40  1  0.13121957  6.39263598  3.09844918  1
  Mo  Mo41  1  3.14123483  6.40507748  -0.06732667  1
  Mo  Mo42  1  3.10267909  12.64048193  6.42318865  1
  Mo  Mo43  1  1.58280075  11.12774280  7.79272644  1
  Mo  Mo44  1  1.69769346  7.93232342  11.04513047  1
  Mo  Mo45  1  -0.01037976  9.49705272  9.47481093  1
  Mo  Mo46  1  1.58792430  11.15504856  10.98426344  1
  Mo  Mo47  1  2.96457152  9.50247415  9.40758912  1
  Mo  Mo48  1  3.21278585  12.68188740  12.67533401  1
  Mo  Mo49  1  0.04011445  12.71942040  12.70859739  1
  Mo  Mo50  1  4.87106965  7.92043797  11.11771414  1
  Mo  Mo51  1  0.04898604  6.13079857  9.38925950  1
  Mo  Mo52  1  1.55196013  7.92832188  14.09543215  1
  Mo  Mo53  1  -0.04997669  9.45932112  12.56730250  1
  Mo  Mo54  1  1.53364045  11.11682050  14.23225883  1
  Mo  Mo55  1  4.78565723  7.84760606  14.32142455  1
  Mo  Mo56  1  3.11797032  9.46835685  12.66848275  1
  Mo  Mo57  1  4.83772683  11.18761689  11.08594017  1
  Mo  Mo58  1  0.04357423  6.37804974  15.81946822  1
  Mo  Mo59  1  3.21063118  6.34146003  9.50926584  1
  Mo  Mo60  1  3.14455124  12.67960364  9.58491769  1
  Mo  Mo61  1  3.16213615  6.32351766  12.62588576  1
  Mo  Mo62  1  6.40348878  3.15603951  0.09741087  1
  Mo  Mo63  1  7.87859561  4.70403783  1.59531175  1
  Mo  Mo64  1  6.49344885  3.16808384  3.10051449  1
  Mo  Mo65  1  9.37778116  3.13118631  6.26785362  1
  Mo  Mo66  1  4.56095564  4.89649876  4.76058558  1
  Mo  Mo67  1  6.13622000  3.20105927  6.26628478  1
  Mo  Mo68  1  4.65369593  4.76737726  8.04104999  1
  Mo  Mo69  1  4.75603792  1.64539548  4.83020037  1
  Mo  Mo70  1  7.87639129  4.68969982  4.59702903  1
  Mo  Mo71  1  6.22085793  -0.03063736  6.37256873  1
  Mo  Mo72  1  7.92635587  1.65110487  4.67580864  1
  Mo  Mo73  1  6.32064807  6.29691688  0.02218747  1
  Mo  Mo74  1  9.43378279  6.22589212  6.31982393  1
  Mo  Mo75  1  7.79549674  1.51658180  11.14978600  1
  Mo  Mo76  1  4.69432691  4.69509147  14.28130990  1
  Mo  Mo77  1  6.14294218  3.18742624  9.44828959  1
  Mo  Mo78  1  7.95757380  4.64693404  10.98853307  1
  Mo  Mo79  1  7.85339488  4.71454310  14.29461526  1
  Mo  Mo80  1  6.28649105  0.03994187  12.79269914  1
  Mo  Mo81  1  9.32736976  0.04045343  9.55571542  1
  Mo  Mo82  1  7.80395656  1.61567688  7.95945045  1
  Mo  Mo83  1  7.60050382  4.73435219  7.98609094  1
  Mo  Mo84  1  9.52598689  3.10993746  12.66093643  1
  Mo  Mo85  1  6.41513593  6.27747518  12.81702609  1
  Mo  Mo86  1  7.84587835  1.66586984  14.16454054  1
  Mo  Mo87  1  6.30666752  3.30979577  12.70899457  1
  Mo  Mo88  1  6.24437067  -0.08459285  9.64059165  1
  Mo  Mo89  1  9.60051673  6.34403173  12.77869873  1
  Mo  Mo90  1  7.87548772  7.96545772  1.62075079  1
  Mo  Mo91  1  4.77046530  11.04056296  4.86289778  1
  Mo  Mo92  1  6.46139685  12.64058123  -0.00862125  1
  Mo  Mo93  1  7.97195152  11.04751351  1.57464874  1
  Mo  Mo94  1  6.30657816  9.63652061  3.33127299  1
  Mo  Mo95  1  9.52082362  9.47839544  3.24118384  1
  Mo  Mo96  1  9.54672934  9.53337434  -0.01155967  1
  Mo  Mo97  1  6.40004329  12.64713461  3.11951930  1
  Mo  Mo98  1  9.31694392  9.43833044  6.37644119  1
  Mo  Mo99  1  8.01412155  7.98515758  4.75890751  1
  Mo  Mo100  1  6.26979978  6.31048040  6.30642922  1
  Mo  Mo101  1  7.75538209  11.17202778  4.77865702  1
  Mo  Mo102  1  6.21135552  9.49949534  6.30208015  1
  Mo  Mo103  1  4.65506619  11.13926087  7.89507836  1
  Mo  Mo104  1  6.32973344  6.25495538  3.05220812  1
  Mo  Mo105  1  7.89012361  7.87679840  7.83208645  1
  Mo  Mo106  1  7.72887068  11.08574158  7.81374691  1
  Mo  Mo107  1  6.36704801  6.40715272  9.53890500  1
  Mo  Mo108  1  7.98948679  11.15633938  14.14706486  1
  Mo  Mo109  1  7.95376092  7.81424338  11.08375571  1
  Mo  Mo110  1  6.25139073  9.38758144  9.47877275  1
  Mo  Mo111  1  7.93559018  11.11453674  10.92041761  1
  Mo  Mo112  1  4.86759437  11.14531778  14.19671169  1
  Mo  Mo113  1  4.71885244  7.81983361  7.90383606  1
  Mo  Mo114  1  7.92125217  8.00506596  14.29809054  1
  Mo  Mo115  1  6.31108609  9.53325519  12.68744784  1
  Mo  Mo116  1  6.36737567  9.49845276  15.92452092  1
