# generated using pymatgen
data_Mo
_symmetry_space_group_name_H-M   'P 1'
_cell_length_a   9.48751059
_cell_length_b   12.65001413
_cell_length_c   15.81251766
_cell_angle_alpha   90.00000000
_cell_angle_beta   90.00000000
_cell_angle_gamma   90.00000000
_symmetry_Int_Tables_number   1
_chemical_formula_structural   Mo
_chemical_formula_sum   Mo117
_cell_volume   1897.77319376
_cell_formula_units_Z   117
loop_
 _symmetry_equiv_pos_site_id
 _symmetry_equiv_pos_as_xyz
  1  'x, y, z'
loop_
 _atom_site_type_symbol
 _atom_site_label
 _atom_site_symmetry_multiplicity
 _atom_site_fract_x
 _atom_site_fract_y
 _atom_site_fract_z
 _atom_site_occupancy
  Mo  Mo0  1  1.47954526  4.82104549  1.60842844  1
  Mo  Mo1  1  2.89214671  3.12462299  3.13287430  1
  Mo  Mo2  1  3.25139123  3.18453680  6.40925775  1
  Mo  Mo3  1  4.75101367  1.55240695  1.89214026  1
  Mo  Mo4  1  3.08110258  0.02689677  3.23244600  1
  Mo  Mo5  1  1.54007468  1.75023967  1.81654799  1
  Mo  Mo6  1  3.14338950  3.32275359  0.18544980  1
  Mo  Mo7  1  -0.13419342  3.18809151  0.28617331  1
  Mo  Mo8  1  1.50335588  4.69696812  4.85364361  1
  Mo  Mo9  1  3.31432356  0.06708201  6.23165115  1
  Mo  Mo10  1  1.49615709  1.53972715  4.72326108  1
  Mo  Mo11  1  4.67726825  1.60182542  4.74482767  1
  Mo  Mo12  1  3.09594698  6.39094799  6.41958429  1
  Mo  Mo13  1  3.11024527  6.32673477  3.15186918  1
  Mo  Mo14  1  4.85015840  4.86152752  7.98670656  1
  Mo  Mo15  1  3.05096695  0.11785067  -0.12631347  1
  Mo  Mo16  1  1.43686883  1.58274117  11.08782675  1
  Mo  Mo17  1  1.45662827  4.78337347  11.24044112  1
  Mo  Mo18  1  3.17673232  3.30344097  9.61810164  1
  Mo  Mo19  1  4.72654770  4.81213885  11.25126413  1
  Mo  Mo20  1  4.66378417  1.56278314  7.97836590  1
  Mo  Mo21  1  4.43610378  1.70522985  14.25112463  1
  Mo  Mo22  1  2.91647367  3.18956106  12.77462769  1
  Mo  Mo23  1  1.53304469  4.78058332  14.30126793  1
  Mo  Mo24  1  1.37285420  1.68284905  14.42598079  1
  Mo  Mo25  1  3.16613768  6.38067110  9.59539317  1
  Mo  Mo26  1  4.64193956  1.61262857  11.05267679  1
  Mo  Mo27  1  3.02222143  0.01306218  12.68049728  1
  Mo  Mo28  1  4.60710734  4.68579758  14.31288529  1
  Mo  Mo29  1  1.46522711  1.60237153  7.99583165  1
  Mo  Mo30  1  1.54519823  4.65160084  7.91666481  1
  Mo  Mo31  1  3.23567304  6.32172044  15.78173662  1
  Mo  Mo32  1  1.65604969  7.90643756  1.55824542  1
  Mo  Mo33  1  1.38141332  11.30001733  1.61912237  1
  Mo  Mo34  1  3.06725111  9.47142502  3.21051202  1
  Mo  Mo35  1  4.65823366  11.13032444  4.89308305  1
  Mo  Mo36  1  1.37806712  11.04562693  4.76389205  1
  Mo  Mo37  1  3.14928754  9.44001843  6.27258000  1
  Mo  Mo38  1  1.57873964  8.02032740  4.64290271  1
  Mo  Mo39  1  4.72576328  7.83108359  1.52749417  1
  Mo  Mo40  1  0.11570394  6.29139615  6.34672259  1
  Mo  Mo41  1  4.63943736  11.11701909  1.65585110  1
  Mo  Mo42  1  4.84664340  10.99190906  7.87354156  1
  Mo  Mo43  1  1.63493986  7.87985664  11.09706106  1
  Mo  Mo44  1  4.70287609  8.07025226  14.12422731  1
  Mo  Mo45  1  1.47018186  10.99071753  11.05903158  1
  Mo  Mo46  1  3.29743371  9.57982392  9.43276999  1
  Mo  Mo47  1  0.11682596  6.32184952  9.54453495  1
  Mo  Mo48  1  3.26499446  12.66897922  9.55730412  1
  Mo  Mo49  1  3.15378555  9.46721497  12.64763108  1
  Mo  Mo50  1  3.19649176  9.61556965  15.75075699  1
  Mo  Mo51  1  1.51672081  11.21383042  14.32301325  1
  Mo  Mo52  1  3.09462638  6.28296612  12.60076446  1
  Mo  Mo53  1  1.49532302  8.08542434  14.19115125  1
  Mo  Mo54  1  1.55461127  7.82710191  8.07359846  1
  Mo  Mo55  1  -0.04420336  9.58313040  12.68288033  1
  Mo  Mo56  1  -0.12630354  12.75496754  12.54704659  1
  Mo  Mo57  1  1.73816556  10.99657586  7.81530582  1
  Mo  Mo58  1  6.33108384  0.06990910  3.28997675  1
  Mo  Mo59  1  7.82062796  4.93166858  1.57684313  1
  Mo  Mo60  1  6.38296478  3.25785525  3.27049533  1
  Mo  Mo61  1  6.21786919  6.41372596  3.18192537  1
  Mo  Mo62  1  9.43313738  0.26829449  0.02290020  1
  Mo  Mo63  1  9.23887923  0.06946873  3.26051632  1
  Mo  Mo64  1  9.49463988  3.04558523  6.32624823  1
  Mo  Mo65  1  6.45603500  3.26468665  6.34373385  1
  Mo  Mo66  1  8.05688733  4.66560125  4.69158640  1
  Mo  Mo67  1  4.70090015  4.68359326  4.60982799  1
  Mo  Mo68  1  6.19346280  0.11986435  0.16372137  1
  Mo  Mo69  1  4.71576441  4.72724276  1.54159387  1
  Mo  Mo70  1  7.94283862  1.67344594  7.84055620  1
  Mo  Mo71  1  9.50656505  -0.04370113  6.42080560  1
  Mo  Mo72  1  6.43941323  0.25566830  6.34373385  1
  Mo  Mo73  1  7.80835527  1.64529619  11.16408429  1
  Mo  Mo74  1  6.34235367  3.28508157  9.69476628  1
  Mo  Mo75  1  7.96152569  4.74502626  11.26188856  1
  Mo  Mo76  1  6.15073674  3.20571614  12.78694010  1
  Mo  Mo77  1  7.74645559  1.57610835  14.40254748  1
  Mo  Mo78  1  7.82499689  4.73166133  8.04657072  1
  Mo  Mo79  1  6.29698639  0.04123319  12.74116572  1
  Mo  Mo80  1  9.35396060  3.14487890  9.55066137  1
  Mo  Mo81  1  9.33194720  3.30453320  12.95206548  1
  Mo  Mo82  1  7.77403937  4.78855660  14.30801990  1
  Mo  Mo83  1  6.32585106  6.41769771  9.62303653  1
  Mo  Mo84  1  6.26347477  6.37752349  12.78058531  1
  Mo  Mo85  1  6.28924148  3.22576353  15.81440424  1
  Mo  Mo86  1  7.85394099  7.99776788  1.57164014  1
  Mo  Mo87  1  6.40651724  9.56165318  0.07945103  1
  Mo  Mo88  1  7.70612250  11.28105224  1.67097353  1
  Mo  Mo89  1  6.19370111  9.48268492  3.20328344  1
  Mo  Mo90  1  9.49053905  6.36089180  3.15785659  1
  Mo  Mo91  1  6.28384984  6.51713039  6.10982774  1
  Mo  Mo92  1  9.25517333  9.65699497  3.20197277  1
  Mo  Mo93  1  9.44911373  9.29141552  6.23759884  1
  Mo  Mo94  1  9.50007124  9.59786558  0.04057676  1
  Mo  Mo95  1  6.31632880  9.45219183  6.30493981  1
  Mo  Mo96  1  7.94703874  8.04979776  4.72353911  1
  Mo  Mo97  1  4.71694601  7.86344340  4.50117092  1
  Mo  Mo98  1  7.84031790  11.14591355  4.77752508  1
  Mo  Mo99  1  4.74865048  7.88019424  7.88788950  1
  Mo  Mo100  1  7.79409669  7.96358107  11.10609678  1
  Mo  Mo101  1  6.36702815  9.53564817  9.43293879  1
  Mo  Mo102  1  7.91599954  11.02398091  11.03252017  1
  Mo  Mo103  1  9.49922725  9.37334273  9.42498537  1
  Mo  Mo104  1  4.70085050  10.96460330  11.19615615  1
  Mo  Mo105  1  7.89760042  7.79595349  7.92904673  1
  Mo  Mo106  1  9.51706039  12.66758911  9.61275964  1
  Mo  Mo107  1  7.91233560  11.24332064  14.30831778  1
  Mo  Mo108  1  6.34035787  9.45984738  12.63372996  1
  Mo  Mo109  1  7.94761464  7.95277792  14.28548024  1
  Mo  Mo110  1  9.44710800  6.48128538  12.71127832  1
  Mo  Mo111  1  7.91748894  11.04165519  7.99629833  1
  Mo  Mo112  1  4.64867167  7.94044564  11.11801202  1
  Mo  Mo113  1  4.70857555  11.19466674  14.17437062  1
  Mo  Mo114  1  6.36375146  12.59272168  9.34552064  1
  Mo  Mo115  1  9.51850015  6.39501903  15.93395382  1
  Mo  Mo116  1  6.27026646  6.35965063  15.84985208  1
