# generated using pymatgen
data_Mo
_symmetry_space_group_name_H-M   'P 1'
_cell_length_a   9.48751059
_cell_length_b   12.65001413
_cell_length_c   15.81251766
_cell_angle_alpha   90.00000000
_cell_angle_beta   90.00000000
_cell_angle_gamma   90.00000000
_symmetry_Int_Tables_number   1
_chemical_formula_structural   Mo
_chemical_formula_sum   Mo117
_cell_volume   1897.77319376
_cell_formula_units_Z   117
loop_
 _symmetry_equiv_pos_site_id
 _symmetry_equiv_pos_as_xyz
  1  'x, y, z'
loop_
 _atom_site_type_symbol
 _atom_site_label
 _atom_site_symmetry_multiplicity
 _atom_site_fract_x
 _atom_site_fract_y
 _atom_site_fract_z
 _atom_site_occupancy
  Mo  Mo0  1  0.06597082  -0.10050506  3.26875769  1
  Mo  Mo1  1  -0.07029317  3.07491658  0.14132767  1
  Mo  Mo2  1  1.42704869  4.70464352  1.81938779  1
  Mo  Mo3  1  3.01047499  -0.09164727  -0.04580338  1
  Mo  Mo4  1  3.09146884  -0.05089645  3.01499285  1
  Mo  Mo5  1  3.18335520  3.17640465  0.05945675  1
  Mo  Mo6  1  3.17378329  3.00764512  3.15819419  1
  Mo  Mo7  1  4.76052600  1.51083269  1.45216006  1
  Mo  Mo8  1  4.62562561  4.69946039  1.63972581  1
  Mo  Mo9  1  6.34157918  0.00974780  0.05816415  1
  Mo  Mo10  1  7.94342445  1.50056573  1.73113557  1
  Mo  Mo11  1  6.42743842  -0.04306625  3.12974655  1
  Mo  Mo12  1  6.37976752  3.07135194  -0.03110235  1
  Mo  Mo13  1  7.84476626  4.66443951  1.64131451  1
  Mo  Mo14  1  6.34094370  3.09866763  3.05825510  1
  Mo  Mo15  1  1.76265138  1.56923723  4.60111000  1
  Mo  Mo16  1  0.05787252  0.04818762  6.20247867  1
  Mo  Mo17  1  1.53974701  4.68112085  4.68878632  1
  Mo  Mo18  1  -0.12019896  3.15168052  6.12739279  1
  Mo  Mo19  1  3.10282803  -0.05942955  6.27763405  1
  Mo  Mo20  1  3.13539636  3.18987880  6.23329943  1
  Mo  Mo21  1  4.75761669  1.57238484  4.68320601  1
  Mo  Mo22  1  4.80005481  4.78139753  4.66889780  1
  Mo  Mo23  1  7.92849068  1.49714009  4.59756522  1
  Mo  Mo24  1  6.42269218  0.07598439  6.33554212  1
  Mo  Mo25  1  8.01805358  4.78473380  4.63034206  1
  Mo  Mo26  1  6.22937733  3.27441743  6.15048850  1
  Mo  Mo27  1  1.55863267  1.64796719  7.97543673  1
  Mo  Mo28  1  0.04098525  0.08298300  9.49219726  1
  Mo  Mo29  1  1.61536907  1.50626518  11.12436682  1
  Mo  Mo30  1  1.60873625  4.77788253  7.86049437  1
  Mo  Mo31  1  -0.01735157  3.20861551  9.51121199  1
  Mo  Mo32  1  1.53856542  4.88338206  11.09785541  1
  Mo  Mo33  1  3.12011506  0.05418128  9.54335336  1
  Mo  Mo34  1  3.23709294  3.05809623  9.47963661  1
  Mo  Mo35  1  4.83540336  1.60068354  7.83677312  1
  Mo  Mo36  1  4.65702227  1.48362623  11.16924756  1
  Mo  Mo37  1  4.69356235  4.86972918  7.89404571  1
  Mo  Mo38  1  4.72838464  4.73999207  11.07799667  1
  Mo  Mo39  1  7.82989206  1.60809085  7.87081099  1
  Mo  Mo40  1  6.28639175  -0.05465322  9.52639400  1
  Mo  Mo41  1  7.79173350  1.66041861  11.18026916  1
  Mo  Mo42  1  8.05404753  4.60376115  7.81442211  1
  Mo  Mo43  1  6.26484503  3.19902375  9.35402018  1
  Mo  Mo44  1  7.82875019  4.77321573  11.13171455  1
  Mo  Mo45  1  0.06829240  0.08146361  12.67672412  1
  Mo  Mo46  1  1.67586871  1.65587096  14.29004775  1
  Mo  Mo47  1  0.07654093  3.20344231  12.70710799  1
  Mo  Mo48  1  1.54821676  4.71638996  14.33939670  1
  Mo  Mo49  1  3.20166496  0.16870293  12.68496550  1
  Mo  Mo50  1  3.16678309  3.17947282  12.60930372  1
  Mo  Mo51  1  4.75929476  1.69745515  14.27118195  1
  Mo  Mo52  1  4.72040143  4.62684693  14.36243284  1
  Mo  Mo53  1  6.41137270  0.10568322  12.75248520  1
  Mo  Mo54  1  8.12804118  1.56196893  14.36739752  1
  Mo  Mo55  1  6.27538008  3.17565001  12.56561450  1
  Mo  Mo56  1  7.79645988  4.75079522  14.29610466  1
  Mo  Mo57  1  0.04111572  6.29569557  -0.02214448  1
  Mo  Mo58  1  1.50122106  7.76139929  1.59222372  1
  Mo  Mo59  1  -0.05677741  6.24731969  3.09903501  1
  Mo  Mo60  1  0.04562385  9.57013286  -0.00189877  1
  Mo  Mo61  1  1.54212013  11.09646530  1.54069030  1
  Mo  Mo62  1  0.03019243  9.53273886  3.15655584  1
  Mo  Mo63  1  3.14383632  6.38149523  0.02428803  1
  Mo  Mo64  1  3.12328253  6.23059864  3.07737906  1
  Mo  Mo65  1  3.23259494  9.35248113  -0.01483547  1
  Mo  Mo66  1  3.15532460  9.35126974  3.03592396  1
  Mo  Mo67  1  4.80056121  7.89771957  1.68327602  1
  Mo  Mo68  1  4.71044227  11.03222229  1.71633088  1
  Mo  Mo69  1  6.36612457  6.22121539  0.11015044  1
  Mo  Mo70  1  8.12031613  7.88891222  1.46162275  1
  Mo  Mo71  1  6.31137404  6.30367878  3.15004218  1
  Mo  Mo72  1  6.40884071  9.65445305  -0.03870100  1
  Mo  Mo73  1  8.09630692  11.04086084  1.63409586  1
  Mo  Mo74  1  6.30226881  9.54854642  3.16048787  1
  Mo  Mo75  1  1.50705953  7.83605820  4.66522393  1
  Mo  Mo76  1  0.09188984  6.33967274  6.32278288  1
  Mo  Mo77  1  1.44898266  11.08425217  4.76531195  1
  Mo  Mo78  1  0.01048660  9.47476129  6.29363026  1
  Mo  Mo79  1  3.12160447  6.29444447  6.04041153  1
  Mo  Mo80  1  3.13585311  9.51860937  6.35339512  1
  Mo  Mo81  1  4.75881815  7.94035628  4.77601581  1
  Mo  Mo82  1  4.57712065  11.14084957  4.64447155  1
  Mo  Mo83  1  7.83966256  8.12176582  4.65115402  1
  Mo  Mo84  1  6.44563895  6.32359709  6.19602458  1
  Mo  Mo85  1  7.90696381  11.06032240  4.71332179  1
  Mo  Mo86  1  6.38685709  9.55449411  6.31804658  1
  Mo  Mo87  1  1.49074558  7.99884025  7.78909229  1
  Mo  Mo88  1  0.00607157  6.33951387  9.42882803  1
  Mo  Mo89  1  1.60779296  7.99074782  11.06280474  1
  Mo  Mo90  1  1.57953399  11.23448350  7.90419352  1
  Mo  Mo91  1  -0.07233763  9.44650231  9.26859783  1
  Mo  Mo92  1  1.50965110  10.94921278  11.19039711  1
  Mo  Mo93  1  3.08230403  6.23138306  9.41259352  1
  Mo  Mo94  1  3.06383541  9.41455953  9.43821129  1
  Mo  Mo95  1  4.72980454  7.87264792  7.94920334  1
  Mo  Mo96  1  4.73637778  8.00551279  11.25285283  1
  Mo  Mo97  1  4.68264997  11.05446407  7.92460830  1
  Mo  Mo98  1  4.80725360  11.12297671  11.11056500  1
  Mo  Mo99  1  7.77007755  7.82848209  7.86598531  1
  Mo  Mo100  1  6.32589078  6.07369477  9.52989906  1
  Mo  Mo101  1  7.98729240  7.94842885  10.93918412  1
  Mo  Mo102  1  7.89468119  11.12903362  7.88352058  1
  Mo  Mo103  1  6.41867079  9.36024589  9.51288013  1
  Mo  Mo104  1  7.91727050  11.19079429  11.08216701  1
  Mo  Mo105  1  -0.07267423  6.37202262  12.64504944  1
  Mo  Mo106  1  1.58932434  7.98852364  14.24238678  1
  Mo  Mo107  1  0.07309166  9.43900563  12.71048397  1
  Mo  Mo108  1  1.48333827  11.16458076  14.36551094  1
  Mo  Mo109  1  3.13701485  6.27096152  12.78356412  1
  Mo  Mo110  1  3.16476743  9.54808967  12.81831690  1
  Mo  Mo111  1  4.78989707  7.91823365  14.38397956  1
  Mo  Mo112  1  4.84150992  11.13062232  14.30841708  1
  Mo  Mo113  1  6.27089201  6.24250395  12.82417523  1
  Mo  Mo114  1  7.90589144  7.88083965  14.25400414  1
  Mo  Mo115  1  6.42904698  9.53504248  12.69161818  1
  Mo  Mo116  1  7.85797232  11.17778682  14.29938135  1
