# generated using pymatgen
data_Mo
_symmetry_space_group_name_H-M   'P 1'
_cell_length_a   9.48751059
_cell_length_b   12.65001413
_cell_length_c   15.81251766
_cell_angle_alpha   90.00000000
_cell_angle_beta   90.00000000
_cell_angle_gamma   90.00000000
_symmetry_Int_Tables_number   1
_chemical_formula_structural   Mo
_chemical_formula_sum   Mo117
_cell_volume   1897.77319376
_cell_formula_units_Z   117
loop_
 _symmetry_equiv_pos_site_id
 _symmetry_equiv_pos_as_xyz
  1  'x, y, z'
loop_
 _atom_site_type_symbol
 _atom_site_label
 _atom_site_symmetry_multiplicity
 _atom_site_fract_x
 _atom_site_fract_y
 _atom_site_fract_z
 _atom_site_occupancy
  Mo  Mo0  1  -0.07686016  -0.04325342  3.08841059  1
  Mo  Mo1  1  0.00197527  3.14919818  0.18453034  1
  Mo  Mo2  1  1.60956039  4.84786472  1.60562836  1
  Mo  Mo3  1  3.24777694  -0.08931347  -0.04311153  1
  Mo  Mo4  1  3.05787779  -0.13002407  3.04419512  1
  Mo  Mo5  1  3.26512354  3.10498271  0.08378132  1
  Mo  Mo6  1  3.14262494  3.07351654  3.06782701  1
  Mo  Mo7  1  4.75754719  1.50228351  1.56839323  1
  Mo  Mo8  1  4.82635771  4.76678150  1.62617222  1
  Mo  Mo9  1  6.35384195  0.03227660  0.11257321  1
  Mo  Mo10  1  8.02156857  1.53969736  1.69550900  1
  Mo  Mo11  1  6.38154488  0.14960181  3.11022541  1
  Mo  Mo12  1  6.33055758  3.33046871  0.06537108  1
  Mo  Mo13  1  7.89557483  4.83729987  1.59148894  1
  Mo  Mo14  1  6.21455278  3.19050435  3.04174256  1
  Mo  Mo15  1  1.66194774  1.55197999  4.67062551  1
  Mo  Mo16  1  -0.08302123  -0.01822307  6.25456813  1
  Mo  Mo17  1  1.60734614  4.68078325  4.65821380  1
  Mo  Mo18  1  0.13800927  3.08968155  6.19040456  1
  Mo  Mo19  1  3.22097758  0.10100649  6.33305978  1
  Mo  Mo20  1  3.05100666  3.23086723  6.40529593  1
  Mo  Mo21  1  4.66415156  1.55675602  4.73772817  1
  Mo  Mo22  1  4.70536836  4.57927533  4.79501069  1
  Mo  Mo23  1  7.93931369  1.53210140  4.67997897  1
  Mo  Mo24  1  6.47106806  0.04037023  6.22902980  1
  Mo  Mo25  1  7.87787077  4.67855907  4.69410846  1
  Mo  Mo26  1  6.40782792  3.17128109  6.32087645  1
  Mo  Mo27  1  1.53046305  1.60392051  7.93000988  1
  Mo  Mo28  1  0.10173828  0.01731185  9.61788319  1
  Mo  Mo29  1  1.63653848  1.72628011  11.11552968  1
  Mo  Mo30  1  1.55178140  4.94190575  7.81861230  1
  Mo  Mo31  1  -0.12421738  3.17617627  9.41332829  1
  Mo  Mo32  1  1.44019517  4.66920561  11.07720232  1
  Mo  Mo33  1  3.21918036  -0.04219038  9.55594380  1
  Mo  Mo34  1  3.01249065  3.14590163  9.43380265  1
  Mo  Mo35  1  4.78968855  1.52015637  7.93176737  1
  Mo  Mo36  1  4.60976841  1.71754226  11.10649396  1
  Mo  Mo37  1  4.74940511  4.72363840  7.83298010  1
  Mo  Mo38  1  4.65658538  4.81328073  11.09060697  1
  Mo  Mo39  1  7.88063113  1.44060228  7.89206976  1
  Mo  Mo40  1  6.30964633  0.00540955  9.59302005  1
  Mo  Mo41  1  7.89267545  1.66771670  11.12128871  1
  Mo  Mo42  1  7.94989840  4.74039917  7.78412761  1
  Mo  Mo43  1  6.24153087  3.24031998  9.56653843  1
  Mo  Mo44  1  7.80263595  4.79513977  11.05883299  1
  Mo  Mo45  1  -0.02181005  -0.00378446  12.68208598  1
  Mo  Mo46  1  1.56543428  1.53199217  14.28309719  1
  Mo  Mo47  1  0.00769608  3.12415631  12.64792896  1
  Mo  Mo48  1  1.57607857  4.71484098  14.44296001  1
  Mo  Mo49  1  3.03996521  -0.03749270  12.62181472  1
  Mo  Mo50  1  3.20090040  3.10279825  12.74414453  1
  Mo  Mo51  1  4.66331749  1.55532619  14.37275938  1
  Mo  Mo52  1  4.68230244  4.53868407  14.26423139  1
  Mo  Mo53  1  6.40024188  0.05722146  12.71525007  1
  Mo  Mo54  1  7.93284968  1.57623744  14.46391097  1
  Mo  Mo55  1  6.26583796  3.08005006  12.57187000  1
  Mo  Mo56  1  7.82261384  4.69196372  14.23325177  1
  Mo  Mo57  1  -0.11887538  6.37229071  -0.01389357  1
  Mo  Mo58  1  1.56817479  7.87844667  1.50719854  1
  Mo  Mo59  1  -0.02838538  6.30169291  3.19084195  1
  Mo  Mo60  1  -0.12188795  9.47177255  -0.00039436  1
  Mo  Mo61  1  1.41203549  11.04473329  1.55716312  1
  Mo  Mo62  1  0.04778985  9.50173938  3.17410103  1
  Mo  Mo63  1  3.26436891  6.35038653  -0.03366999  1
  Mo  Mo64  1  3.21802855  6.21383787  3.25335724  1
  Mo  Mo65  1  3.14079793  9.54349237  0.00811509  1
  Mo  Mo66  1  3.08452821  9.52041652  3.10666077  1
  Mo  Mo67  1  4.73708276  7.97897159  1.65131338  1
  Mo  Mo68  1  4.77407959  11.03371169  1.42123008  1
  Mo  Mo69  1  6.34310830  6.25127158  -0.09929864  1
  Mo  Mo70  1  7.90032107  7.87695727  1.57533386  1
  Mo  Mo71  1  6.29604310  6.41989210  3.13703470  1
  Mo  Mo72  1  6.35268021  9.50461889  -0.03150886  1
  Mo  Mo73  1  7.86412852  11.08842251  1.61287680  1
  Mo  Mo74  1  6.21030301  9.56789875  3.22906008  1
  Mo  Mo75  1  1.56271364  7.87244933  4.64043030  1
  Mo  Mo76  1  0.15034353  6.42123256  6.22962556  1
  Mo  Mo77  1  1.63200076  11.02269010  4.76628503  1
  Mo  Mo78  1  0.07013609  9.53342399  6.27310626  1
  Mo  Mo79  1  3.19209305  6.38136615  6.29521896  1
  Mo  Mo80  1  3.22335070  9.45677920  6.28674921  1
  Mo  Mo81  1  4.73402452  7.91161076  4.76277004  1
  Mo  Mo82  1  4.68933243  11.14422555  4.63841464  1
  Mo  Mo83  1  8.06343079  8.02779429  4.70485204  1
  Mo  Mo84  1  6.21566487  6.19125848  6.24385434  1
  Mo  Mo85  1  7.91027029  11.10361444  4.60029580  1
  Mo  Mo86  1  6.45140791  9.49821445  6.33137179  1
  Mo  Mo87  1  1.54600251  8.02139977  7.90057923  1
  Mo  Mo88  1  0.04155887  6.33733934  9.49605978  1
  Mo  Mo89  1  1.44778121  7.76718811  11.19367380  1
  Mo  Mo90  1  1.58772571  11.13151596  7.81892011  1
  Mo  Mo91  1  0.03110920  9.45032511  9.48780848  1
  Mo  Mo92  1  1.68179654  11.14482132  11.02884630  1
  Mo  Mo93  1  3.25313880  6.34878790  9.52394144  1
  Mo  Mo94  1  3.14613993  9.57905936  9.44446679  1
  Mo  Mo95  1  4.78432669  8.08485836  7.98357881  1
  Mo  Mo96  1  4.78381037  7.87807928  11.08723098  1
  Mo  Mo97  1  4.85228328  11.19268087  7.92725944  1
  Mo  Mo98  1  4.87541871  11.08435147  11.19387239  1
  Mo  Mo99  1  7.88114746  7.91951453  7.86367177  1
  Mo  Mo100  1  6.45778256  6.40332991  9.34386244  1
  Mo  Mo101  1  7.83246377  7.76664199  11.12863645  1
  Mo  Mo102  1  7.96494139  11.07332987  7.67170731  1
  Mo  Mo103  1  6.24669414  9.61654272  9.62699835  1
  Mo  Mo104  1  8.03307671  11.06270545  11.06856377  1
  Mo  Mo105  1  -0.12174497  6.20419645  12.64782967  1
  Mo  Mo106  1  1.51592646  7.80634953  14.23126589  1
  Mo  Mo107  1  -0.06073744  9.50752820  12.72309427  1
  Mo  Mo108  1  1.66697199  10.97989452  14.27634522  1
  Mo  Mo109  1  3.13433392  6.23393491  12.71862606  1
  Mo  Mo110  1  3.17752666  9.44025674  12.78634434  1
  Mo  Mo111  1  4.78277771  7.88700579  14.30901284  1
  Mo  Mo112  1  4.82402430  11.13797005  14.18310846  1
  Mo  Mo113  1  6.29780060  6.28721589  12.68357539  1
  Mo  Mo114  1  7.97829639  7.79878336  14.15778857  1
  Mo  Mo115  1  6.27953056  9.34208508  12.65944703  1
  Mo  Mo116  1  7.95573687  11.11801202  14.15242671  1
