# generated using pymatgen
data_Mo
_symmetry_space_group_name_H-M   'P 1'
_cell_length_a   9.48751059
_cell_length_b   12.65001413
_cell_length_c   15.81251766
_cell_angle_alpha   90.00000000
_cell_angle_beta   90.00000000
_cell_angle_gamma   90.00000000
_symmetry_Int_Tables_number   1
_chemical_formula_structural   Mo
_chemical_formula_sum   Mo117
_cell_volume   1897.77319376
_cell_formula_units_Z   117
loop_
 _symmetry_equiv_pos_site_id
 _symmetry_equiv_pos_as_xyz
  1  'x, y, z'
loop_
 _atom_site_type_symbol
 _atom_site_label
 _atom_site_symmetry_multiplicity
 _atom_site_fract_x
 _atom_site_fract_y
 _atom_site_fract_z
 _atom_site_occupancy
  Mo  Mo0  1  0.09951013  -0.02702933  3.04420505  1
  Mo  Mo1  1  0.06785015  3.18822059  0.12336345  1
  Mo  Mo2  1  1.36522845  4.73676502  1.63498950  1
  Mo  Mo3  1  3.25269198  0.03396956  0.04726021  1
  Mo  Mo4  1  3.20037414  0.08168414  3.05076836  1
  Mo  Mo5  1  3.00414998  3.20807933  0.01318739  1
  Mo  Mo6  1  3.11239994  3.09493419  3.01858728  1
  Mo  Mo7  1  4.71169337  1.55630919  1.66357615  1
  Mo  Mo8  1  4.65027030  4.87554779  1.49854013  1
  Mo  Mo9  1  6.41940556  0.04758034  -0.01006778  1
  Mo  Mo10  1  7.94995798  1.72153387  1.51776339  1
  Mo  Mo11  1  6.35328590  0.07125096  3.13247712  1
  Mo  Mo12  1  6.21682660  3.16839165  0.11243619  1
  Mo  Mo13  1  7.82307059  4.73261455  1.54950758  1
  Mo  Mo14  1  6.21355984  3.33370569  3.07154060  1
  Mo  Mo15  1  1.52528985  1.66624715  4.56229611  1
  Mo  Mo16  1  -0.02968523  -0.05333292  6.41950485  1
  Mo  Mo17  1  1.54636990  4.80273574  4.69579645  1
  Mo  Mo18  1  0.03494085  3.06187932  6.17653323  1
  Mo  Mo19  1  3.27120032  -0.01123260  6.25893705  1
  Mo  Mo20  1  2.97934642  3.11831785  6.22503819  1
  Mo  Mo21  1  4.77734635  1.57130254  4.70903230  1
  Mo  Mo22  1  4.71645947  4.69868590  4.58057607  1
  Mo  Mo23  1  7.86150717  1.55055016  4.62963708  1
  Mo  Mo24  1  6.38896212  -0.02457836  6.25977112  1
  Mo  Mo25  1  7.93111204  4.70089022  4.78441606  1
  Mo  Mo26  1  6.25635542  3.19595557  6.25719941  1
  Mo  Mo27  1  1.49478683  1.67392255  7.91583074  1
  Mo  Mo28  1  0.01540363  -0.04007423  9.47421517  1
  Mo  Mo29  1  1.63578385  1.63766050  11.07035106  1
  Mo  Mo30  1  1.59169746  4.81104662  7.76361354  1
  Mo  Mo31  1  0.04166899  3.08839073  9.48587225  1
  Mo  Mo32  1  1.55188070  4.81132464  11.07005318  1
  Mo  Mo33  1  3.22276486  0.04562753  9.50501607  1
  Mo  Mo34  1  3.05658697  3.21642000  9.50266281  1
  Mo  Mo35  1  4.69282757  1.58566040  7.91166040  1
  Mo  Mo36  1  4.80694579  1.49805360  11.09070626  1
  Mo  Mo37  1  4.82315052  4.65506619  7.86623355  1
  Mo  Mo38  1  4.64994263  4.71537717  10.97671712  1
  Mo  Mo39  1  7.92589912  1.45170331  7.88119711  1
  Mo  Mo40  1  6.33991104  0.08864175  9.55863465  1
  Mo  Mo41  1  7.93370360  1.45518852  11.03867638  1
  Mo  Mo42  1  8.08056887  4.79127725  7.89794795  1
  Mo  Mo43  1  6.24316922  3.15218692  9.38778003  1
  Mo  Mo44  1  7.90888018  4.62630081  11.09150061  1
  Mo  Mo45  1  0.10292187  -0.08733961  12.71654089  1
  Mo  Mo46  1  1.46014327  1.36931935  14.46708837  1
  Mo  Mo47  1  -0.00992323  3.01994760  12.73044200  1
  Mo  Mo48  1  1.56511654  4.64218780  14.37712830  1
  Mo  Mo49  1  3.27124996  0.02423073  12.65289364  1
  Mo  Mo50  1  3.12395773  3.17103286  12.67344743  1
  Mo  Mo51  1  4.69976820  1.73360798  14.10466646  1
  Mo  Mo52  1  4.83023016  4.67478591  14.32023302  1
  Mo  Mo53  1  6.43745715  -0.08067303  12.75218732  1
  Mo  Mo54  1  8.00552272  1.38481909  14.41297332  1
  Mo  Mo55  1  6.40870170  3.06414322  12.57574246  1
  Mo  Mo56  1  7.82271313  4.64977383  14.37464596  1
  Mo  Mo57  1  -0.08116334  6.37902282  -0.05011123  1
  Mo  Mo58  1  1.57412248  7.84838055  1.53943920  1
  Mo  Mo59  1  -0.10856671  6.27622408  3.14417392  1
  Mo  Mo60  1  0.00691624  9.49023124  0.04799251  1
  Mo  Mo61  1  1.65642701  10.98843378  1.71349108  1
  Mo  Mo62  1  0.03324749  9.62557845  3.06507658  1
  Mo  Mo63  1  3.14331006  6.30416532  0.01058193  1
  Mo  Mo64  1  3.13126574  6.33663435  3.19259944  1
  Mo  Mo65  1  3.16020985  9.52161797  0.05237543  1
  Mo  Mo66  1  3.25184798  9.35915366  3.24726061  1
  Mo  Mo67  1  4.68234216  7.89343009  1.60941145  1
  Mo  Mo68  1  4.69890434  11.03103076  1.69786226  1
  Mo  Mo69  1  6.23211783  6.38742307  0.01840845  1
  Mo  Mo70  1  7.95492266  7.99810548  1.49727911  1
  Mo  Mo71  1  6.26695998  6.45623358  3.12690675  1
  Mo  Mo72  1  6.35084328  9.61996836  0.06572179  1
  Mo  Mo73  1  7.90346868  11.21055373  1.46437318  1
  Mo  Mo74  1  6.45252993  9.55838642  3.20761265  1
  Mo  Mo75  1  1.56189943  7.97074014  4.73089677  1
  Mo  Mo76  1  0.05503878  6.36285781  6.30570437  1
  Mo  Mo77  1  1.65821429  11.07462069  4.84057656  1
  Mo  Mo78  1  0.04756862  9.48451193  6.19930127  1
  Mo  Mo79  1  3.03705590  6.35924352  6.34849002  1
  Mo  Mo80  1  3.13773969  9.57837424  6.46047342  1
  Mo  Mo81  1  4.62731361  7.84503435  4.71754177  1
  Mo  Mo82  1  4.84706044  11.00481723  4.77158731  1
  Mo  Mo83  1  8.02969080  8.05260778  4.58888695  1
  Mo  Mo84  1  6.37156587  6.24090532  6.26255134  1
  Mo  Mo85  1  7.98734204  11.13022515  4.73034072  1
  Mo  Mo86  1  6.28641161  9.49465974  6.29643034  1
  Mo  Mo87  1  1.56186964  7.94234215  7.88140562  1
  Mo  Mo88  1  0.01032237  6.30537670  9.54414771  1
  Mo  Mo89  1  1.60947103  7.99424295  11.11642332  1
  Mo  Mo90  1  1.56953511  11.05913087  7.75195646  1
  Mo  Mo91  1  0.01273551  9.43769496  9.60977090  1
  Mo  Mo92  1  1.48644617  11.16031113  10.91217624  1
  Mo  Mo93  1  3.20376998  6.36826932  9.34659301  1
  Mo  Mo94  1  3.17363435  9.58194881  9.53186508  1
  Mo  Mo95  1  4.64787733  7.90222751  7.93927398  1
  Mo  Mo96  1  4.79610292  7.98547532  11.10252221  1
  Mo  Mo97  1  4.64212822  11.07700374  7.87539836  1
  Mo  Mo98  1  4.83542322  11.09150061  11.17004191  1
  Mo  Mo99  1  7.73456021  7.99858209  7.97917017  1
  Mo  Mo100  1  6.38538755  6.21253712  9.54149657  1
  Mo  Mo101  1  8.02878722  7.86583637  11.12049437  1
  Mo  Mo102  1  7.93226384  11.03252017  7.96282644  1
  Mo  Mo103  1  6.36076272  9.55380898  9.37604352  1
  Mo  Mo104  1  7.84925433  11.04721563  11.11185582  1
  Mo  Mo105  1  -0.10072450  6.27378146  12.60334610  1
  Mo  Mo106  1  1.55285377  7.80558497  14.35270206  1
  Mo  Mo107  1  0.07174455  9.46060201  12.65815621  1
  Mo  Mo108  1  1.58421072  11.05307396  14.31109801  1
  Mo  Mo109  1  3.20041386  6.20226022  12.69787368  1
  Mo  Mo110  1  3.28144742  9.54732510  12.76380468  1
  Mo  Mo111  1  4.73143295  7.89317192  14.17605861  1
  Mo  Mo112  1  4.75643510  10.99846244  14.29759407  1
  Mo  Mo113  1  6.30323196  6.26139954  12.72994553  1
  Mo  Mo114  1  7.97656868  7.94143858  14.17774660  1
  Mo  Mo115  1  6.29586437  9.52368328  12.71852676  1
  Mo  Mo116  1  7.91088591  10.99161118  14.19532158  1
