# generated using pymatgen
data_Mo
_symmetry_space_group_name_H-M   'P 1'
_cell_length_a   9.48751059
_cell_length_b   12.65001413
_cell_length_c   15.81251766
_cell_angle_alpha   90.00000000
_cell_angle_beta   90.00000000
_cell_angle_gamma   90.00000000
_symmetry_Int_Tables_number   1
_chemical_formula_structural   Mo
_chemical_formula_sum   Mo117
_cell_volume   1897.77319376
_cell_formula_units_Z   117
loop_
 _symmetry_equiv_pos_site_id
 _symmetry_equiv_pos_as_xyz
  1  'x, y, z'
loop_
 _atom_site_type_symbol
 _atom_site_label
 _atom_site_symmetry_multiplicity
 _atom_site_fract_x
 _atom_site_fract_y
 _atom_site_fract_z
 _atom_site_occupancy
  Mo  Mo0  1  1.59272019  1.60005799  1.68574843  1
  Mo  Mo1  1  -0.01882469  0.07562772  3.02376048  1
  Mo  Mo2  1  0.14931286  3.28160629  -0.12405156  1
  Mo  Mo3  1  1.59103219  4.67519302  1.70421705  1
  Mo  Mo4  1  3.12222009  0.12554990  -0.11891013  1
  Mo  Mo5  1  3.19367182  3.18975965  0.02054684  1
  Mo  Mo6  1  3.17471665  3.21130637  3.13630986  1
  Mo  Mo7  1  4.63871252  1.51611512  1.61055333  1
  Mo  Mo8  1  4.67842999  4.77560871  1.58489584  1
  Mo  Mo9  1  6.25893705  -0.01254159  -0.01081308  1
  Mo  Mo10  1  7.82744944  1.58279082  1.55392615  1
  Mo  Mo11  1  6.24772680  0.02257253  3.12045266  1
  Mo  Mo12  1  6.30086877  3.17764582  0.03976871  1
  Mo  Mo13  1  7.95960932  4.67620581  1.55631912  1
  Mo  Mo14  1  6.39003449  3.10066343  3.17208537  1
  Mo  Mo15  1  1.44239949  1.54470176  4.74970299  1
  Mo  Mo16  1  0.07966967  0.02495339  6.35429870  1
  Mo  Mo17  1  1.45868365  4.72205963  4.57522414  1
  Mo  Mo18  1  0.07555693  3.03949853  6.27693900  1
  Mo  Mo19  1  3.14899959  -0.08667295  6.18978894  1
  Mo  Mo20  1  3.20838714  3.15580121  6.12008478  1
  Mo  Mo21  1  4.64600067  1.57417213  4.71145507  1
  Mo  Mo22  1  4.67045671  4.65326897  4.68171661  1
  Mo  Mo23  1  7.90218779  1.67925462  4.84499513  1
  Mo  Mo24  1  6.23935634  -0.00356069  6.38082997  1
  Mo  Mo25  1  7.89485992  4.73384579  4.83042875  1
  Mo  Mo26  1  6.21917987  3.17309817  6.34990992  1
  Mo  Mo27  1  1.56659602  1.53979666  8.09217631  1
  Mo  Mo28  1  -0.01550580  -0.10071755  9.62032581  1
  Mo  Mo29  1  1.65718164  1.50011890  11.00769675  1
  Mo  Mo30  1  1.47641750  4.64608011  7.95353255  1
  Mo  Mo31  1  -0.02419648  3.11203256  9.45410820  1
  Mo  Mo32  1  1.56692369  4.77453634  11.02537102  1
  Mo  Mo33  1  3.05783807  0.07367045  9.35345420  1
  Mo  Mo34  1  3.16211629  3.22276486  9.51676251  1
  Mo  Mo35  1  4.58248251  1.64300250  8.02218419  1
  Mo  Mo36  1  4.83245434  1.65894907  11.07918820  1
  Mo  Mo37  1  4.65885921  4.88281609  7.99531533  1
  Mo  Mo38  1  4.87313496  4.81804682  11.05446407  1
  Mo  Mo39  1  7.84334636  1.57724030  7.95079204  1
  Mo  Mo40  1  6.31852319  0.06677519  9.44868677  1
  Mo  Mo41  1  7.93815196  1.52264864  11.07432281  1
  Mo  Mo42  1  7.88937890  4.57990088  7.89031226  1
  Mo  Mo43  1  6.35629450  3.18467581  9.43257140  1
  Mo  Mo44  1  7.98874208  4.72417458  11.14035310  1
  Mo  Mo45  1  0.01075837  -0.08506122  12.66937639  1
  Mo  Mo46  1  1.55805676  1.45851485  14.08510560  1
  Mo  Mo47  1  0.15698131  3.01578720  12.62787164  1
  Mo  Mo48  1  1.65832352  4.68121021  14.15262530  1
  Mo  Mo49  1  3.21768103  0.01144757  12.45510064  1
  Mo  Mo50  1  3.24609888  3.28143749  12.46542719  1
  Mo  Mo51  1  4.77072346  1.67359488  14.24328043  1
  Mo  Mo52  1  4.79653981  4.70246899  14.25599002  1
  Mo  Mo53  1  6.36892466  0.11781890  12.78505352  1
  Mo  Mo54  1  8.20127027  1.50002954  14.57670859  1
  Mo  Mo55  1  6.30054110  3.29472299  12.69727792  1
  Mo  Mo56  1  7.90228708  4.73583166  14.17834236  1
  Mo  Mo57  1  -0.01758402  6.41665512  0.06213034  1
  Mo  Mo58  1  1.69080248  7.85319629  1.72480063  1
  Mo  Mo59  1  -0.03462251  6.20765187  3.03862474  1
  Mo  Mo60  1  0.06356086  9.52735715  0.06411502  1
  Mo  Mo61  1  1.56920744  11.17381507  1.50590773  1
  Mo  Mo62  1  -0.13796260  9.44790235  3.16002119  1
  Mo  Mo63  1  3.00223361  6.23410370  0.04391988  1
  Mo  Mo64  1  3.21917043  6.35535121  3.25512467  1
  Mo  Mo65  1  3.11250917  9.50615795  0.00667956  1
  Mo  Mo66  1  3.11207227  9.63234035  3.13896100  1
  Mo  Mo67  1  4.84053684  7.83925546  1.66344707  1
  Mo  Mo68  1  4.64702340  10.96132660  1.57984180  1
  Mo  Mo69  1  6.35588740  6.26423933  0.12043230  1
  Mo  Mo70  1  7.94494364  7.92180822  1.58582920  1
  Mo  Mo71  1  6.34804320  6.25707033  3.15092589  1
  Mo  Mo72  1  6.24214649  9.57678554  0.08055815  1
  Mo  Mo73  1  7.83747810  11.05108809  1.50612617  1
  Mo  Mo74  1  6.31413441  9.50188832  3.06857172  1
  Mo  Mo75  1  1.58110283  7.80598215  4.74896822  1
  Mo  Mo76  1  0.02378848  6.31347907  6.37511065  1
  Mo  Mo77  1  1.71304426  11.24113618  4.60538956  1
  Mo  Mo78  1  0.07072152  9.57615999  6.27859720  1
  Mo  Mo79  1  3.09844918  6.24487707  6.30796827  1
  Mo  Mo80  1  3.05320105  9.52065482  6.25551142  1
  Mo  Mo81  1  4.74500640  7.88827674  4.67969102  1
  Mo  Mo82  1  4.63283433  11.01911552  4.74401346  1
  Mo  Mo83  1  8.15161350  7.88741289  4.80026333  1
  Mo  Mo84  1  6.38641027  6.40257528  6.26912458  1
  Mo  Mo85  1  7.83664403  11.20211377  4.67394191  1
  Mo  Mo86  1  6.21842523  9.48040117  6.13105673  1
  Mo  Mo87  1  1.52344299  7.79818759  7.97480125  1
  Mo  Mo88  1  -0.17522752  6.32037998  9.52561951  1
  Mo  Mo89  1  1.55972490  7.96744359  10.93114133  1
  Mo  Mo90  1  1.53154535  11.12277812  8.03889532  1
  Mo  Mo91  1  0.04120330  9.51673272  9.45571676  1
  Mo  Mo92  1  1.55753051  11.08008184  11.11682050  1
  Mo  Mo93  1  3.19032562  6.33945429  9.44505262  1
  Mo  Mo94  1  3.09691013  9.51172832  9.36755391  1
  Mo  Mo95  1  4.87678896  7.84819189  7.85385163  1
  Mo  Mo96  1  4.63906005  7.86657115  11.14770083  1
  Mo  Mo97  1  4.77388100  11.06528708  7.80724318  1
  Mo  Mo98  1  4.78614377  11.05257749  11.06479061  1
  Mo  Mo99  1  7.99211807  8.11203504  7.89493935  1
  Mo  Mo100  1  6.40435264  6.26797278  9.63296590  1
  Mo  Mo101  1  7.83820294  7.91293136  11.15087823  1
  Mo  Mo102  1  7.84344565  11.18870912  7.85177639  1
  Mo  Mo103  1  6.31386631  9.55010533  9.60516367  1
  Mo  Mo104  1  7.87130746  11.02745619  11.17093555  1
  Mo  Mo105  1  0.12390659  6.09493369  12.54794023  1
  Mo  Mo106  1  1.67832126  7.86793147  14.29272868  1
  Mo  Mo107  1  0.11620438  9.39614056  12.60275034  1
  Mo  Mo108  1  1.61766276  11.13131738  14.25569214  1
  Mo  Mo109  1  3.14238663  6.27609500  12.66470959  1
  Mo  Mo110  1  3.16314894  9.51699089  12.68546197  1
  Mo  Mo111  1  4.69016650  7.92510477  14.29421808  1
  Mo  Mo112  1  4.75032854  11.08881968  14.21240009  1
  Mo  Mo113  1  6.40843361  6.37500143  12.70303695  1
  Mo  Mo114  1  7.96078099  7.83995051  14.37861771  1
  Mo  Mo115  1  6.33844150  9.54520022  12.67612836  1
  Mo  Mo116  1  7.92851054  11.02398091  14.25152180  1
