# generated using pymatgen
data_Mo
_symmetry_space_group_name_H-M   'P 1'
_cell_length_a   9.48751059
_cell_length_b   12.65001413
_cell_length_c   15.81251766
_cell_angle_alpha   90.00000000
_cell_angle_beta   90.00000000
_cell_angle_gamma   90.00000000
_symmetry_Int_Tables_number   1
_chemical_formula_structural   Mo
_chemical_formula_sum   Mo117
_cell_volume   1897.77319376
_cell_formula_units_Z   117
loop_
 _symmetry_equiv_pos_site_id
 _symmetry_equiv_pos_as_xyz
  1  'x, y, z'
loop_
 _atom_site_type_symbol
 _atom_site_label
 _atom_site_symmetry_multiplicity
 _atom_site_fract_x
 _atom_site_fract_y
 _atom_site_fract_z
 _atom_site_occupancy
  Mo  Mo0  1  1.58185746  1.55297293  1.71519893  1
  Mo  Mo1  1  0.00320685  0.00845676  3.28825897  1
  Mo  Mo2  1  0.04970413  3.07236473  0.11452632  1
  Mo  Mo3  1  1.65723129  4.62751219  1.70127796  1
  Mo  Mo4  1  3.09674133  0.02994518  0.08975930  1
  Mo  Mo5  1  3.20415723  3.08513390  0.08894926  1
  Mo  Mo6  1  3.22690541  3.04505897  3.19059371  1
  Mo  Mo7  1  4.75763655  1.59555998  1.49387333  1
  Mo  Mo8  1  4.72888111  4.82618891  1.58444902  1
  Mo  Mo9  1  6.34530269  0.07364910  0.05422318  1
  Mo  Mo10  1  8.06570461  1.68797261  1.60235167  1
  Mo  Mo11  1  6.54974837  -0.11925766  3.07819327  1
  Mo  Mo12  1  6.51002097  3.22305281  -0.05462542  1
  Mo  Mo13  1  7.91223631  4.69370136  1.61781170  1
  Mo  Mo14  1  6.30323196  3.19801095  3.17410103  1
  Mo  Mo15  1  1.69145782  1.52759346  4.78093085  1
  Mo  Mo16  1  -0.01631782  0.02064981  6.46480263  1
  Mo  Mo17  1  1.54008461  4.59285870  4.70063205  1
  Mo  Mo18  1  0.01808674  3.07864009  6.34605732  1
  Mo  Mo19  1  3.10814024  0.00027789  6.25475679  1
  Mo  Mo20  1  3.25468778  3.13848439  6.26716850  1
  Mo  Mo21  1  4.79274680  1.43851711  4.65818401  1
  Mo  Mo22  1  4.80325207  4.65623785  4.65952447  1
  Mo  Mo23  1  7.92785520  1.57631687  4.75970186  1
  Mo  Mo24  1  6.31537558  0.00911939  6.34990992  1
  Mo  Mo25  1  7.96551729  4.77500302  4.68433796  1
  Mo  Mo26  1  6.36390040  3.16349647  6.42485678  1
  Mo  Mo27  1  1.55526661  1.57113374  8.00406310  1
  Mo  Mo28  1  0.02107012  0.07057705  9.48949647  1
  Mo  Mo29  1  1.62479204  1.64540541  11.07124470  1
  Mo  Mo30  1  1.56030080  4.65924645  7.87082092  1
  Mo  Mo31  1  -0.03833659  3.31996344  9.56084890  1
  Mo  Mo32  1  1.58638525  4.76414029  11.13250890  1
  Mo  Mo33  1  3.05487912  0.15611647  9.51307872  1
  Mo  Mo34  1  3.08017915  3.16581994  9.55243873  1
  Mo  Mo35  1  4.81466091  1.50618575  7.81622925  1
  Mo  Mo36  1  4.67235322  1.63112698  11.20558904  1
  Mo  Mo37  1  4.78156633  4.69848731  7.93593771  1
  Mo  Mo38  1  4.72527674  4.74043889  11.17262354  1
  Mo  Mo39  1  7.90095655  1.68519238  7.91942517  1
  Mo  Mo40  1  6.18188516  -0.01907431  9.50501607  1
  Mo  Mo41  1  7.94210385  1.67885745  11.19685120  1
  Mo  Mo42  1  7.90895962  4.75592870  7.98500864  1
  Mo  Mo43  1  6.20609296  3.03894248  9.64291512  1
  Mo  Mo44  1  7.85128985  4.83854104  11.07571292  1
  Mo  Mo45  1  -0.01571680  0.08578487  12.59023933  1
  Mo  Mo46  1  1.51241146  1.60391058  14.24357831  1
  Mo  Mo47  1  -0.03567503  3.35782412  12.64912048  1
  Mo  Mo48  1  1.54657841  4.66644524  14.34515574  1
  Mo  Mo49  1  3.29461377  -0.05440142  12.73153423  1
  Mo  Mo50  1  3.16860016  3.21475186  12.78674152  1
  Mo  Mo51  1  4.80164351  1.69381108  14.27267135  1
  Mo  Mo52  1  4.56768775  4.80665784  14.30533897  1
  Mo  Mo53  1  6.35246176  0.04208503  12.73103776  1
  Mo  Mo54  1  7.99264433  1.51413917  14.21835771  1
  Mo  Mo55  1  6.38151509  3.35210480  12.58467889  1
  Mo  Mo56  1  8.10192694  4.77530090  14.26899749  1
  Mo  Mo57  1  0.05340153  6.32731068  -0.18348875  1
  Mo  Mo58  1  1.58013968  7.98077873  1.55785818  1
  Mo  Mo59  1  0.00999768  6.26512305  3.04836545  1
  Mo  Mo60  1  -0.08288718  9.43599704  -0.06295328  1
  Mo  Mo61  1  1.58224470  11.24649804  1.59265068  1
  Mo  Mo62  1  -0.13676711  9.45291668  2.98225572  1
  Mo  Mo63  1  3.18454673  6.35419940  0.09288466  1
  Mo  Mo64  1  3.15488771  6.25962218  3.12590388  1
  Mo  Mo65  1  3.01607515  9.54179445  0.03207980  1
  Mo  Mo66  1  3.02983725  9.54775207  3.08907586  1
  Mo  Mo67  1  4.78394938  7.93051627  1.60260984  1
  Mo  Mo68  1  4.65967341  11.22107886  1.59928350  1
  Mo  Mo69  1  6.22796736  6.13591219  -0.06097208  1
  Mo  Mo70  1  7.96607334  7.81053973  1.40534309  1
  Mo  Mo71  1  6.30821650  6.42194748  3.12928980  1
  Mo  Mo72  1  6.24050815  9.37459383  0.02277449  1
  Mo  Mo73  1  7.87185357  10.95765274  1.55216865  1
  Mo  Mo74  1  6.25357519  9.42361512  3.13148419  1
  Mo  Mo75  1  1.63447318  7.96168456  4.80017396  1
  Mo  Mo76  1  0.11198837  6.21351020  6.28189375  1
  Mo  Mo77  1  1.62095931  10.96361036  4.69809014  1
  Mo  Mo78  1  0.04383806  9.31881064  6.24680337  1
  Mo  Mo79  1  3.26416040  6.34790418  6.46385934  1
  Mo  Mo80  1  3.20847650  9.44767397  6.30480080  1
  Mo  Mo81  1  4.92558187  7.92301960  4.48847126  1
  Mo  Mo82  1  4.62852499  11.11394098  4.59018770  1
  Mo  Mo83  1  7.98570370  7.93228370  4.62995482  1
  Mo  Mo84  1  6.41913747  6.30227874  6.22147355  1
  Mo  Mo85  1  7.89591243  10.97095809  4.68183576  1
  Mo  Mo86  1  6.31615007  9.54445552  6.36904381  1
  Mo  Mo87  1  1.53423621  7.73702269  7.91277249  1
  Mo  Mo88  1  0.06294842  6.38422581  9.63776178  1
  Mo  Mo89  1  1.68863787  7.96729465  11.18314867  1
  Mo  Mo90  1  1.64971475  11.02050563  7.87679840  1
  Mo  Mo91  1  0.02950531  9.45301597  9.52110164  1
  Mo  Mo92  1  1.60646243  11.08097548  11.07342916  1
  Mo  Mo93  1  3.13858369  6.22967521  9.51821220  1
  Mo  Mo94  1  3.16466813  9.58723123  9.43040680  1
  Mo  Mo95  1  4.86577729  7.77355283  7.92189758  1
  Mo  Mo96  1  4.70354136  7.87550758  10.99637727  1
  Mo  Mo97  1  4.62005524  11.04115872  7.91483780  1
  Mo  Mo98  1  4.80119669  11.03470463  11.06508849  1
  Mo  Mo99  1  7.98537603  7.91264341  7.81243624  1
  Mo  Mo100  1  6.18451644  6.37269782  9.47193142  1
  Mo  Mo101  1  7.92368487  7.85324594  11.07124470  1
  Mo  Mo102  1  7.81685480  11.10003987  7.90811562  1
  Mo  Mo103  1  6.31335992  9.58452051  9.46651991  1
  Mo  Mo104  1  7.91546335  11.18970206  10.95159582  1
  Mo  Mo105  1  -0.09583677  6.30811721  12.61228253  1
  Mo  Mo106  1  1.48926611  7.90506730  14.18290987  1
  Mo  Mo107  1  -0.06944461  9.52863803  12.51904577  1
  Mo  Mo108  1  1.52302596  11.34460019  14.17496638  1
  Mo  Mo109  1  3.07797483  6.38691667  12.64802825  1
  Mo  Mo110  1  3.02312500  9.56725334  12.69082383  1
  Mo  Mo111  1  4.68264997  7.85777373  14.20286790  1
  Mo  Mo112  1  4.77417888  10.92309854  14.23196095  1
  Mo  Mo113  1  6.25686181  6.16505488  12.76102445  1
  Mo  Mo114  1  7.82602954  8.00155097  14.04628178  1
  Mo  Mo115  1  6.24897790  9.38435440  12.61099171  1
  Mo  Mo116  1  7.85774394  11.12218236  14.23593270  1
