# generated using pymatgen
data_Mo
_symmetry_space_group_name_H-M   'P 1'
_cell_length_a   9.48751059
_cell_length_b   12.65001413
_cell_length_c   15.81251766
_cell_angle_alpha   90.00000000
_cell_angle_beta   90.00000000
_cell_angle_gamma   90.00000000
_symmetry_Int_Tables_number   1
_chemical_formula_structural   Mo
_chemical_formula_sum   Mo117
_cell_volume   1897.77319376
_cell_formula_units_Z   117
loop_
 _symmetry_equiv_pos_site_id
 _symmetry_equiv_pos_as_xyz
  1  'x, y, z'
loop_
 _atom_site_type_symbol
 _atom_site_label
 _atom_site_symmetry_multiplicity
 _atom_site_fract_x
 _atom_site_fract_y
 _atom_site_fract_z
 _atom_site_occupancy
  Mo  Mo0  1  1.63151422  1.66057748  1.76375354  1
  Mo  Mo1  1  0.07602986  0.01577955  3.02072209  1
  Mo  Mo2  1  0.13921072  3.08403174  -0.04017571  1
  Mo  Mo3  1  1.59905512  4.76023805  1.66643581  1
  Mo  Mo4  1  3.14275402  0.06196928  0.17454537  1
  Mo  Mo5  1  3.28570712  3.09979958  0.02821777  1
  Mo  Mo6  1  3.19204340  3.16418159  3.12506982  1
  Mo  Mo7  1  4.80112718  1.40179831  1.66706136  1
  Mo  Mo8  1  4.80978559  4.65162070  1.56786698  1
  Mo  Mo9  1  6.48618056  -0.04799439  0.11571188  1
  Mo  Mo10  1  8.05499082  1.49942385  1.43219210  1
  Mo  Mo11  1  6.27813052  0.00052936  3.21399723  1
  Mo  Mo12  1  6.46513030  3.18032675  0.00355038  1
  Mo  Mo13  1  8.03938186  4.67922434  1.55696453  1
  Mo  Mo14  1  6.40170150  3.16513481  3.01557868  1
  Mo  Mo15  1  1.51975919  1.58224470  4.47170056  1
  Mo  Mo16  1  -0.06958044  0.05508019  6.42276169  1
  Mo  Mo17  1  1.66538330  4.73124429  4.74287158  1
  Mo  Mo18  1  0.01616054  3.23519643  6.26686069  1
  Mo  Mo19  1  2.99620649  0.10014363  6.26914444  1
  Mo  Mo20  1  3.18746596  3.33015097  6.29034364  1
  Mo  Mo21  1  4.76119127  1.76092367  4.72059008  1
  Mo  Mo22  1  4.82987270  4.83431113  4.56737001  1
  Mo  Mo23  1  8.07320128  1.63929885  4.82434204  1
  Mo  Mo24  1  6.24636647  0.06215595  6.33764715  1
  Mo  Mo25  1  8.04897363  4.66598849  4.51573730  1
  Mo  Mo26  1  6.31007329  3.12181298  6.22203952  1
  Mo  Mo27  1  1.45694601  1.56834359  7.89025269  1
  Mo  Mo28  1  0.13423710  -0.02176458  9.57896007  1
  Mo  Mo29  1  1.49080516  1.60048495  11.12605481  1
  Mo  Mo30  1  1.57040890  4.78901335  7.88316312  1
  Mo  Mo31  1  -0.02037347  3.18584747  9.44202416  1
  Mo  Mo32  1  1.61127817  4.68075346  11.10162857  1
  Mo  Mo33  1  3.16644549  -0.05506837  9.42044765  1
  Mo  Mo34  1  3.04839524  3.04714414  9.47298393  1
  Mo  Mo35  1  4.59175654  1.64284363  7.82131309  1
  Mo  Mo36  1  4.70892308  1.52173514  11.02646326  1
  Mo  Mo37  1  4.63366840  4.73483873  7.80779922  1
  Mo  Mo38  1  4.74002186  4.78994671  11.06498920  1
  Mo  Mo39  1  7.83495604  1.53297518  7.97159407  1
  Mo  Mo40  1  6.31641816  0.00159162  9.52461664  1
  Mo  Mo41  1  7.81662643  1.56849253  11.26377514  1
  Mo  Mo42  1  7.74353636  4.84169858  7.77386064  1
  Mo  Mo43  1  6.37231057  3.13139482  9.40677491  1
  Mo  Mo44  1  7.95367156  4.75746775  11.02209433  1
  Mo  Mo45  1  -0.11669787  -0.04365605  12.77591851  1
  Mo  Mo46  1  1.49545210  1.45282533  14.33840377  1
  Mo  Mo47  1  -0.03969424  3.09978965  12.68625632  1
  Mo  Mo48  1  1.60061403  4.66553174  14.10724809  1
  Mo  Mo49  1  3.18932275  -0.02752272  12.79845817  1
  Mo  Mo50  1  3.27867713  3.25472750  12.58884922  1
  Mo  Mo51  1  4.91974341  1.51981877  14.37822053  1
  Mo  Mo52  1  4.83591969  4.62141556  14.17188827  1
  Mo  Mo53  1  6.27390061  -0.05432565  12.63690736  1
  Mo  Mo54  1  7.94921327  1.59458691  14.39609339  1
  Mo  Mo55  1  6.38377899  3.08784462  12.75397460  1
  Mo  Mo56  1  7.88529793  4.74375530  14.22491110  1
  Mo  Mo57  1  0.15391512  6.31097687  0.15253196  1
  Mo  Mo58  1  1.71638053  7.97548638  1.64396565  1
  Mo  Mo59  1  -0.01124104  6.46862543  3.09677112  1
  Mo  Mo60  1  -0.02515129  9.44595619  0.06196720  1
  Mo  Mo61  1  1.49829190  11.26159068  1.49209598  1
  Mo  Mo62  1  -0.05857602  9.59477755  3.20303521  1
  Mo  Mo63  1  3.24498679  6.10475383  0.04160405  1
  Mo  Mo64  1  3.22233790  6.36468482  3.19872586  1
  Mo  Mo65  1  3.10346351  9.46185311  -0.04080960  1
  Mo  Mo66  1  3.11998598  9.54435622  3.07596909  1
  Mo  Mo67  1  4.77349375  7.86916271  1.45796874  1
  Mo  Mo68  1  4.94478527  11.16825462  1.63750163  1
  Mo  Mo69  1  6.41420257  6.38366977  -0.01177266  1
  Mo  Mo70  1  7.96947911  7.83650502  1.61877485  1
  Mo  Mo71  1  6.44273957  6.26262085  3.13270550  1
  Mo  Mo72  1  6.34577930  9.43270049  0.13861099  1
  Mo  Mo73  1  7.83713057  11.13052303  1.66083565  1
  Mo  Mo74  1  6.26494432  9.55964745  3.15618845  1
  Mo  Mo75  1  1.54937850  7.94131943  4.74946468  1
  Mo  Mo76  1  -0.12600169  6.39991421  6.34273098  1
  Mo  Mo77  1  1.60595603  10.94871631  4.70377966  1
  Mo  Mo78  1  -0.06356890  9.59636625  6.33760743  1
  Mo  Mo79  1  3.13197073  6.30274542  6.32406377  1
  Mo  Mo80  1  3.00190594  9.54893366  6.23483848  1
  Mo  Mo81  1  4.63971539  8.04395930  4.63159316  1
  Mo  Mo82  1  4.55215822  11.23766090  4.66772613  1
  Mo  Mo83  1  7.84698051  7.88579440  4.83019044  1
  Mo  Mo84  1  6.20119778  6.38200163  6.31291309  1
  Mo  Mo85  1  7.85533110  11.14561566  4.77039579  1
  Mo  Mo86  1  6.20250846  9.64958766  6.26549043  1
  Mo  Mo87  1  1.63007447  7.79729395  7.80503886  1
  Mo  Mo88  1  -0.12861013  6.32375596  9.53650209  1
  Mo  Mo89  1  1.53195246  7.64555336  11.12645199  1
  Mo  Mo90  1  1.55320130  10.99091612  7.87986657  1
  Mo  Mo91  1  0.11903326  9.51266168  9.54327392  1
  Mo  Mo92  1  1.68364340  11.10877771  10.88516836  1
  Mo  Mo93  1  3.29312436  6.15252402  9.36799080  1
  Mo  Mo94  1  3.11898311  9.46925049  9.35835931  1
  Mo  Mo95  1  4.70077107  7.94585715  7.86152703  1
  Mo  Mo96  1  4.65337819  7.89864300  11.05327255  1
  Mo  Mo97  1  4.75501520  11.08018113  7.89130520  1
  Mo  Mo98  1  4.73238617  10.97661783  11.07015247  1
  Mo  Mo99  1  7.81153266  7.95928165  7.86110007  1
  Mo  Mo100  1  6.29519910  6.24579057  9.49088658  1
  Mo  Mo101  1  7.85032670  7.90448147  11.21591559  1
  Mo  Mo102  1  7.86076247  11.13350184  7.92597855  1
  Mo  Mo103  1  6.36365216  9.42217536  9.52619541  1
  Mo  Mo104  1  7.89591243  11.04562693  11.19178722  1
  Mo  Mo105  1  -0.01430325  6.27280838  12.69330617  1
  Mo  Mo106  1  1.62179337  7.91561229  14.20286790  1
  Mo  Mo107  1  0.05389075  9.45905303  12.74126501  1
  Mo  Mo108  1  1.53218083  10.96301460  14.28984916  1
  Mo  Mo109  1  3.23164172  6.30415539  12.57415376  1
  Mo  Mo110  1  3.07337753  9.46727454  12.61148818  1
  Mo  Mo111  1  4.67321707  7.90826456  14.20713753  1
  Mo  Mo112  1  4.75730888  11.08296136  14.31020436  1
  Mo  Mo113  1  6.35161777  6.39347998  12.69459699  1
  Mo  Mo114  1  7.98264545  8.05697670  14.23454258  1
  Mo  Mo115  1  6.22647795  9.44214332  12.75864141  1
  Mo  Mo116  1  7.83497590  11.09805399  14.33592143  1
