# generated using pymatgen
data_Mo
_symmetry_space_group_name_H-M   'P 1'
_cell_length_a   9.48751059
_cell_length_b   12.65001413
_cell_length_c   15.81251766
_cell_angle_alpha   90.00000000
_cell_angle_beta   90.00000000
_cell_angle_gamma   90.00000000
_symmetry_Int_Tables_number   1
_chemical_formula_structural   Mo
_chemical_formula_sum   Mo117
_cell_volume   1897.77319376
_cell_formula_units_Z   117
loop_
 _symmetry_equiv_pos_site_id
 _symmetry_equiv_pos_as_xyz
  1  'x, y, z'
loop_
 _atom_site_type_symbol
 _atom_site_label
 _atom_site_symmetry_multiplicity
 _atom_site_fract_x
 _atom_site_fract_y
 _atom_site_fract_z
 _atom_site_occupancy
  Mo  Mo0  1  0.14623575  -0.19650417  3.25815313  1
  Mo  Mo1  1  0.01343841  3.19726625  0.03315734  1
  Mo  Mo2  1  1.46962582  4.78166562  1.46269512  1
  Mo  Mo3  1  -0.10052789  3.10610472  3.21247804  1
  Mo  Mo4  1  3.17762596  -0.00234056  -0.06731227  1
  Mo  Mo5  1  3.24394420  0.04987869  3.20738427  1
  Mo  Mo6  1  3.28218220  2.98781617  0.03366850  1
  Mo  Mo7  1  3.12041294  3.10014710  3.15088617  1
  Mo  Mo8  1  0.00316438  0.17548767  6.32199846  1
  Mo  Mo9  1  1.62979644  4.75261229  4.62264680  1
  Mo  Mo10  1  -0.07613313  3.10203368  6.42062687  1
  Mo  Mo11  1  3.18417934  0.02846869  6.26775433  1
  Mo  Mo12  1  3.05931755  3.20091032  6.30203051  1
  Mo  Mo13  1  1.50021820  1.70271772  7.92181815  1
  Mo  Mo14  1  -0.04050596  0.09289410  9.46716532  1
  Mo  Mo15  1  1.52438628  1.53926047  11.12357247  1
  Mo  Mo16  1  1.66710108  4.62602279  7.88299432  1
  Mo  Mo17  1  -0.04705507  3.26760589  9.73128650  1
  Mo  Mo18  1  1.53455395  4.75448894  11.15822596  1
  Mo  Mo19  1  2.97016175  0.07969757  9.52701955  1
  Mo  Mo20  1  3.12696633  3.16156024  9.54040434  1
  Mo  Mo21  1  -0.02906038  0.00263967  12.56064982  1
  Mo  Mo22  1  1.50829077  1.59806218  14.31139589  1
  Mo  Mo23  1  0.09686158  3.17232368  12.71395925  1
  Mo  Mo24  1  1.65874055  4.62003538  14.31834644  1
  Mo  Mo25  1  3.10801116  -0.02081037  12.71485290  1
  Mo  Mo26  1  3.10294719  3.08232389  12.72637096  1
  Mo  Mo27  1  -0.08905709  6.34914536  0.02844754  1
  Mo  Mo28  1  1.60305666  7.82092585  1.44096966  1
  Mo  Mo29  1  0.06164568  6.30907043  3.31472073  1
  Mo  Mo30  1  -0.07592729  9.52686068  -0.05535602  1
  Mo  Mo31  1  1.64617990  10.98853307  1.52953962  1
  Mo  Mo32  1  0.01164248  9.37367040  3.14244621  1
  Mo  Mo33  1  3.07708118  6.27968943  -0.06448181  1
  Mo  Mo34  1  3.14348879  6.34736800  3.05850334  1
  Mo  Mo35  1  3.07145123  9.41611844  -0.06851839  1
  Mo  Mo36  1  3.22287409  9.51978104  3.14381646  1
  Mo  Mo37  1  1.63342066  7.92340685  4.63078888  1
  Mo  Mo38  1  -0.07251060  6.22257571  6.40785771  1
  Mo  Mo39  1  1.64025207  10.99627798  4.83505583  1
  Mo  Mo40  1  -0.00852058  9.45866578  6.28539882  1
  Mo  Mo41  1  3.23692414  6.28763292  6.30954704  1
  Mo  Mo42  1  3.19559811  9.47351019  6.39212959  1
  Mo  Mo43  1  1.72672693  7.94865723  7.90971425  1
  Mo  Mo44  1  0.08170320  6.39334097  9.61324617  1
  Mo  Mo45  1  1.55287363  7.85393106  11.12943080  1
  Mo  Mo46  1  1.73093698  11.18334726  7.82614869  1
  Mo  Mo47  1  0.16935926  9.52225345  9.37943936  1
  Mo  Mo48  1  1.50714890  11.11761485  11.10500455  1
  Mo  Mo49  1  3.28595536  6.31516706  9.29676745  1
  Mo  Mo50  1  3.24890889  9.33766651  9.57801678  1
  Mo  Mo51  1  -0.09590329  6.34989006  12.72329286  1
  Mo  Mo52  1  1.33006856  7.91226610  14.14051147  1
  Mo  Mo53  1  -0.03960974  9.44176600  12.56819614  1
  Mo  Mo54  1  1.47678489  11.14829659  14.18459787  1
  Mo  Mo55  1  3.06357724  6.32420278  12.73709468  1
  Mo  Mo56  1  3.19689886  9.29411631  12.73908055  1
  Mo  Mo57  1  4.77543991  1.54289462  1.47784733  1
  Mo  Mo58  1  4.79473267  4.54933828  1.59554013  1
  Mo  Mo59  1  6.41703244  -0.01712051  -0.06726551  1
  Mo  Mo60  1  8.00205737  1.48902780  1.52111952  1
  Mo  Mo61  1  6.51745806  0.01822446  3.05303226  1
  Mo  Mo62  1  6.34578923  3.08529277  -0.07118751  1
  Mo  Mo63  1  7.96238954  4.65057811  1.68364340  1
  Mo  Mo64  1  6.42180847  3.12554643  3.17528263  1
  Mo  Mo65  1  4.73265426  1.71217048  4.67792359  1
  Mo  Mo66  1  4.75647482  4.75502513  4.82405409  1
  Mo  Mo67  1  7.86501224  1.44793015  4.81306228  1
  Mo  Mo68  1  6.21876283  0.00845594  6.42665400  1
  Mo  Mo69  1  8.02343529  4.71506935  4.69312545  1
  Mo  Mo70  1  6.34545163  3.33951437  6.25565043  1
  Mo  Mo71  1  4.54166288  1.65033038  7.78931074  1
  Mo  Mo72  1  4.66015995  1.52833817  11.13171455  1
  Mo  Mo73  1  4.84600792  4.74178928  7.88773063  1
  Mo  Mo74  1  4.68306700  4.79326312  11.08484794  1
  Mo  Mo75  1  7.97815738  1.61742445  8.05839660  1
  Mo  Mo76  1  6.18568811  0.02012206  9.42321794  1
  Mo  Mo77  1  7.77652171  1.66391375  11.13101949  1
  Mo  Mo78  1  7.93605686  4.68231237  7.92629629  1
  Mo  Mo79  1  6.23091638  3.09376252  9.68224535  1
  Mo  Mo80  1  7.83355600  4.83871977  11.17371577  1
  Mo  Mo81  1  4.80834583  1.51432783  14.22937931  1
  Mo  Mo82  1  4.71605236  4.52056298  14.33592143  1
  Mo  Mo83  1  6.42703131  0.06139060  12.60543127  1
  Mo  Mo84  1  8.01761668  1.58475683  14.29004775  1
  Mo  Mo85  1  6.31928775  3.17326697  12.70710799  1
  Mo  Mo86  1  7.91450020  4.67395184  14.29113998  1
  Mo  Mo87  1  4.71480126  7.85904469  1.49954300  1
  Mo  Mo88  1  4.77342425  11.01017909  1.49132148  1
  Mo  Mo89  1  6.21311302  6.22397575  0.00524621  1
  Mo  Mo90  1  8.03129935  7.95717663  1.33229274  1
  Mo  Mo91  1  6.41771757  6.39498925  3.12953803  1
  Mo  Mo92  1  6.27196438  9.33101383  -0.07778299  1
  Mo  Mo93  1  8.03129935  11.03172582  1.40833183  1
  Mo  Mo94  1  6.39096785  9.60849001  3.20960845  1
  Mo  Mo95  1  4.86521132  8.01736845  4.87067247  1
  Mo  Mo96  1  4.72289370  11.19129075  4.72057022  1
  Mo  Mo97  1  7.97766091  8.08183983  4.74358650  1
  Mo  Mo98  1  6.34746729  6.51862973  6.27023667  1
  Mo  Mo99  1  7.93854913  11.07303199  4.72298306  1
  Mo  Mo100  1  6.36867642  9.56646892  6.41134291  1
  Mo  Mo101  1  4.81725248  7.99592102  7.91059796  1
  Mo  Mo102  1  4.74076656  7.93497456  11.02348445  1
  Mo  Mo103  1  4.72779880  11.13379972  7.90966460  1
  Mo  Mo104  1  4.66328770  11.17987198  10.98217828  1
  Mo  Mo105  1  7.97055148  8.01008030  7.84846991  1
  Mo  Mo106  1  6.33191790  6.25102335  9.59958337  1
  Mo  Mo107  1  7.94839906  8.05763204  10.99498716  1
  Mo  Mo108  1  7.93904560  11.13459407  8.05371987  1
  Mo  Mo109  1  6.32356730  9.53175586  9.47463221  1
  Mo  Mo110  1  7.83365529  10.96231954  11.02914418  1
  Mo  Mo111  1  4.57733910  7.85190547  14.28448730  1
  Mo  Mo112  1  4.65960391  11.01941340  14.04806906  1
  Mo  Mo113  1  6.23557325  6.35269014  12.70859739  1
  Mo  Mo114  1  7.82290179  7.93917468  14.17774660  1
  Mo  Mo115  1  6.27175587  9.60490551  12.55985547  1
  Mo  Mo116  1  7.86352283  11.15971537  14.21657043  1
