# generated using pymatgen
data_Mo
_symmetry_space_group_name_H-M   'P 1'
_cell_length_a   9.48751059
_cell_length_b   12.65001413
_cell_length_c   15.81251766
_cell_angle_alpha   90.00000000
_cell_angle_beta   90.00000000
_cell_angle_gamma   90.00000000
_symmetry_Int_Tables_number   1
_chemical_formula_structural   Mo
_chemical_formula_sum   Mo117
_cell_volume   1897.77319376
_cell_formula_units_Z   117
loop_
 _symmetry_equiv_pos_site_id
 _symmetry_equiv_pos_as_xyz
  1  'x, y, z'
loop_
 _atom_site_type_symbol
 _atom_site_label
 _atom_site_symmetry_multiplicity
 _atom_site_fract_x
 _atom_site_fract_y
 _atom_site_fract_z
 _atom_site_occupancy
  Mo  Mo0  1  -0.11967767  0.06949256  3.20610338  1
  Mo  Mo1  1  0.09011785  3.22113645  0.17701282  1
  Mo  Mo2  1  1.64218829  4.84164893  1.54571456  1
  Mo  Mo3  1  -0.05751894  3.05235706  3.22972535  1
  Mo  Mo4  1  3.00495426  0.11005314  0.18156345  1
  Mo  Mo5  1  3.18613543  0.11328614  3.16429082  1
  Mo  Mo6  1  3.24165052  3.14262494  0.01268099  1
  Mo  Mo7  1  3.15878995  3.04319225  3.32923747  1
  Mo  Mo8  1  -0.00640141  0.07120677  6.29906163  1
  Mo  Mo9  1  1.49050728  4.78598490  4.70389882  1
  Mo  Mo10  1  -0.02255764  3.20975739  6.18926268  1
  Mo  Mo11  1  3.07499602  0.05936292  6.33572085  1
  Mo  Mo12  1  3.02308528  3.10304648  6.09818059  1
  Mo  Mo13  1  1.59821113  1.63700516  7.73975327  1
  Mo  Mo14  1  0.06240995  -0.00622649  9.44955062  1
  Mo  Mo15  1  1.59420959  1.52715657  10.97363902  1
  Mo  Mo16  1  1.72880217  4.83908715  7.93141985  1
  Mo  Mo17  1  0.09224650  3.14455124  9.50685300  1
  Mo  Mo18  1  1.50980997  4.68259039  10.92131125  1
  Mo  Mo19  1  3.18980929  -0.05293783  9.44904423  1
  Mo  Mo20  1  3.27231241  3.02251931  9.32361646  1
  Mo  Mo21  1  -0.00873488  -0.05198977  12.75208802  1
  Mo  Mo22  1  1.41573914  1.62639067  14.29540961  1
  Mo  Mo23  1  -0.05124705  3.06538439  12.50971216  1
  Mo  Mo24  1  1.56924716  4.67868815  14.05442386  1
  Mo  Mo25  1  2.98685302  -0.02954583  12.79349349  1
  Mo  Mo26  1  3.18075371  3.13274522  12.58388454  1
  Mo  Mo27  1  0.11872743  6.28636197  -0.04421438  1
  Mo  Mo28  1  1.64179112  8.00555250  1.59782388  1
  Mo  Mo29  1  0.08583759  6.27351336  3.14342922  1
  Mo  Mo30  1  -0.13802516  9.62145776  0.08023713  1
  Mo  Mo31  1  1.59211449  11.09110344  1.70050347  1
  Mo  Mo32  1  -0.08998708  9.38572465  3.24625775  1
  Mo  Mo33  1  3.05941684  6.36873600  -0.06054720  1
  Mo  Mo34  1  3.28858664  6.26077399  3.23928733  1
  Mo  Mo35  1  3.00627486  9.51211557  -0.09558069  1
  Mo  Mo36  1  3.22877213  9.44948112  3.12896213  1
  Mo  Mo37  1  1.50982983  7.89588264  4.80717417  1
  Mo  Mo38  1  0.08554021  6.29516931  6.38826706  1
  Mo  Mo39  1  1.55165232  11.21670994  4.53515915  1
  Mo  Mo40  1  -0.14329269  9.55095925  6.26824087  1
  Mo  Mo41  1  3.30992485  6.34304872  6.25118222  1
  Mo  Mo42  1  3.14137384  9.47563507  6.23215755  1
  Mo  Mo43  1  1.68449733  7.94922320  7.92125217  1
  Mo  Mo44  1  0.02734329  6.45831875  9.60277069  1
  Mo  Mo45  1  1.57723037  7.79772091  11.15713373  1
  Mo  Mo46  1  1.54576421  11.07730162  7.91500660  1
  Mo  Mo47  1  -0.00106472  9.36052391  9.40098609  1
  Mo  Mo48  1  1.56151218  10.96490118  11.07908890  1
  Mo  Mo49  1  3.14027168  6.35738673  9.52220380  1
  Mo  Mo50  1  3.06666528  9.53278851  9.47491023  1
  Mo  Mo51  1  0.14423101  6.30731293  12.65348941  1
  Mo  Mo52  1  1.52668989  7.97557574  14.34942536  1
  Mo  Mo53  1  0.11989215  9.34878740  12.64792896  1
  Mo  Mo54  1  1.53581498  11.23229904  14.36352507  1
  Mo  Mo55  1  3.25949359  6.30836544  12.59500543  1
  Mo  Mo56  1  3.07874932  9.46374962  12.65378729  1
  Mo  Mo57  1  4.81846386  1.57551259  1.57011102  1
  Mo  Mo58  1  4.81457155  4.64777803  1.67403178  1
  Mo  Mo59  1  6.33125264  0.08865744  0.09118674  1
  Mo  Mo60  1  7.93052620  1.63490014  1.53875407  1
  Mo  Mo61  1  6.34328703  -0.00519789  3.08445870  1
  Mo  Mo62  1  6.45821946  3.24904790  0.01956135  1
  Mo  Mo63  1  7.94087260  4.79927039  1.52721615  1
  Mo  Mo64  1  6.18492355  3.12858481  3.33126306  1
  Mo  Mo65  1  4.66787507  1.48212689  4.85279961  1
  Mo  Mo66  1  4.75404212  4.67679164  4.66261251  1
  Mo  Mo67  1  7.92968221  1.66031932  4.77526118  1
  Mo  Mo68  1  6.39065011  -0.01776165  6.32898874  1
  Mo  Mo69  1  7.84210519  4.72955630  4.70703650  1
  Mo  Mo70  1  6.33630668  3.21671788  6.33231508  1
  Mo  Mo71  1  4.70647052  1.36969666  7.87043367  1
  Mo  Mo72  1  4.70742374  1.59453726  10.84257137  1
  Mo  Mo73  1  4.82451084  4.87797056  7.92795450  1
  Mo  Mo74  1  4.63719333  4.72224829  11.01911552  1
  Mo  Mo75  1  7.92195716  1.47485859  7.93493484  1
  Mo  Mo76  1  6.26098250  -0.14994040  9.56632991  1
  Mo  Mo77  1  7.91885920  1.48410283  10.98336980  1
  Mo  Mo78  1  7.98788816  4.84068578  7.87660974  1
  Mo  Mo79  1  6.33036892  3.19926205  9.39812643  1
  Mo  Mo80  1  7.98862293  4.77386114  11.08603946  1
  Mo  Mo81  1  4.61745374  1.59048608  14.16116456  1
  Mo  Mo82  1  4.87111929  4.71479133  14.23841504  1
  Mo  Mo83  1  6.25304894  0.09128286  12.84601984  1
  Mo  Mo84  1  7.88642988  1.70149641  14.19919404  1
  Mo  Mo85  1  6.36192445  3.07303993  12.58487748  1
  Mo  Mo86  1  8.01328748  4.76696023  14.19075407  1
  Mo  Mo87  1  4.80685643  7.85594672  1.56191929  1
  Mo  Mo88  1  4.67731790  11.13657994  1.48749868  1
  Mo  Mo89  1  6.37860579  6.31536565  -0.04357155  1
  Mo  Mo90  1  8.02359416  7.88954770  1.57447001  1
  Mo  Mo91  1  6.50518536  6.26250170  3.04958677  1
  Mo  Mo92  1  6.35426891  9.50816368  0.15868420  1
  Mo  Mo93  1  7.80398634  11.14253756  1.80628102  1
  Mo  Mo94  1  6.29839636  9.41057786  3.18174665  1
  Mo  Mo95  1  4.82340868  7.74491654  4.72353911  1
  Mo  Mo96  1  4.70096965  11.09626671  4.70571589  1
  Mo  Mo97  1  8.02137992  7.92559131  4.68022720  1
  Mo  Mo98  1  6.32020125  6.31989344  6.24657499  1
  Mo  Mo99  1  7.85139907  11.00839181  4.77701868  1
  Mo  Mo100  1  6.28822869  9.43903542  6.36795158  1
  Mo  Mo101  1  4.60879534  7.95480351  7.72704368  1
  Mo  Mo102  1  4.78253941  7.85356368  11.24699451  1
  Mo  Mo103  1  4.68888561  10.97741218  7.78314460  1
  Mo  Mo104  1  4.63295349  11.07849314  11.10043704  1
  Mo  Mo105  1  7.86061353  7.81047022  7.82468908  1
  Mo  Mo106  1  6.32150200  6.41213726  9.46790009  1
  Mo  Mo107  1  7.85315657  7.92329762  11.13985663  1
  Mo  Mo108  1  7.77611461  11.11801202  7.98343980  1
  Mo  Mo109  1  6.34565022  9.45899345  9.55366997  1
  Mo  Mo110  1  7.94023712  10.97651854  11.04036437  1
  Mo  Mo111  1  4.76011889  7.94927285  14.28806187  1
  Mo  Mo112  1  4.69185449  11.11205440  14.38249016  1
  Mo  Mo113  1  6.48410532  6.32883980  12.68844078  1
  Mo  Mo114  1  7.92332741  8.00566173  14.32360901  1
  Mo  Mo115  1  6.48645858  9.66447178  12.65478022  1
  Mo  Mo116  1  7.81027163  11.08723098  14.33542496  1
