# generated using pymatgen
data_Mo
_symmetry_space_group_name_H-M   'P 1'
_cell_length_a   9.48751059
_cell_length_b   12.65001413
_cell_length_c   15.81251766
_cell_angle_alpha   90.00000000
_cell_angle_beta   90.00000000
_cell_angle_gamma   90.00000000
_symmetry_Int_Tables_number   1
_chemical_formula_structural   Mo
_chemical_formula_sum   Mo117
_cell_volume   1897.77319376
_cell_formula_units_Z   117
loop_
 _symmetry_equiv_pos_site_id
 _symmetry_equiv_pos_as_xyz
  1  'x, y, z'
loop_
 _atom_site_type_symbol
 _atom_site_label
 _atom_site_symmetry_multiplicity
 _atom_site_fract_x
 _atom_site_fract_y
 _atom_site_fract_z
 _atom_site_occupancy
  Mo  Mo0  1  -0.09096254  -0.02507543  3.00348471  1
  Mo  Mo1  1  -0.03355173  3.10324507  -0.19124657  1
  Mo  Mo2  1  1.69137838  4.69464465  1.53973708  1
  Mo  Mo3  1  0.01390816  3.12245839  2.97148236  1
  Mo  Mo4  1  3.14908896  -0.13426391  0.13318261  1
  Mo  Mo5  1  2.94236946  -0.00837318  3.21064111  1
  Mo  Mo6  1  3.18364315  3.06729083  -0.12594608  1
  Mo  Mo7  1  3.01600564  3.16834200  3.18677091  1
  Mo  Mo8  1  0.05424394  0.08688524  6.24841192  1
  Mo  Mo9  1  1.41137022  4.71506935  4.75864935  1
  Mo  Mo10  1  -0.00349349  3.16374470  6.17568924  1
  Mo  Mo11  1  3.27798208  0.05728173  6.32780714  1
  Mo  Mo12  1  2.77997465  2.97502714  6.25247303  1
  Mo  Mo13  1  1.63865344  1.60715749  7.98100711  1
  Mo  Mo14  1  -0.02242627  0.07827032  9.42578965  1
  Mo  Mo15  1  1.59893597  1.58441923  11.00610805  1
  Mo  Mo16  1  1.51676052  4.74338791  7.93294897  1
  Mo  Mo17  1  0.04762224  3.21426532  9.44431785  1
  Mo  Mo18  1  1.66112360  4.85356417  11.23507927  1
  Mo  Mo19  1  3.28143749  0.07704057  9.55192240  1
  Mo  Mo20  1  3.12226973  3.17044703  9.41833269  1
  Mo  Mo21  1  0.06753668  0.04720570  12.62380060  1
  Mo  Mo22  1  1.61022566  1.42737636  14.19532158  1
  Mo  Mo23  1  0.03376491  3.11106941  12.57832409  1
  Mo  Mo24  1  1.49567055  4.68411952  14.15610058  1
  Mo  Mo25  1  3.14738111  -0.03553403  12.53165607  1
  Mo  Mo26  1  3.08709992  3.13269557  12.65249647  1
  Mo  Mo27  1  -0.06225058  6.29714526  0.02236064  1
  Mo  Mo28  1  1.65734051  7.90962488  1.51750523  1
  Mo  Mo29  1  -0.09062822  6.40856269  3.26596754  1
  Mo  Mo30  1  -0.05200884  9.46557662  0.01054747  1
  Mo  Mo31  1  1.49837134  10.94196434  1.51762438  1
  Mo  Mo32  1  0.01444683  9.52961111  3.21326246  1
  Mo  Mo33  1  3.12342154  6.24873959  0.00411843  1
  Mo  Mo34  1  3.12754223  6.40352850  3.07508538  1
  Mo  Mo35  1  3.20845664  9.54803009  -0.04480478  1
  Mo  Mo36  1  3.21396744  9.31588148  3.06287226  1
  Mo  Mo37  1  1.56530520  7.87771190  4.81364811  1
  Mo  Mo38  1  -0.11564834  6.15015090  6.32818446  1
  Mo  Mo39  1  1.59300814  11.14581425  4.69423754  1
  Mo  Mo40  1  0.00700549  9.40778770  6.37122827  1
  Mo  Mo41  1  3.23826461  6.18580726  6.36905374  1
  Mo  Mo42  1  3.17805292  9.58677448  6.36201382  1
  Mo  Mo43  1  1.50160831  7.92168907  7.90659643  1
  Mo  Mo44  1  0.12158610  6.25340639  9.59636625  1
  Mo  Mo45  1  1.73178098  8.05231982  11.14223968  1
  Mo  Mo46  1  1.62953828  11.11413957  7.90487865  1
  Mo  Mo47  1  0.09200989  9.54474347  9.47799826  1
  Mo  Mo48  1  1.63410579  11.06945742  11.04781140  1
  Mo  Mo49  1  3.35541128  6.29447426  9.45475361  1
  Mo  Mo50  1  3.13283458  9.46982639  9.37941950  1
  Mo  Mo51  1  0.01575671  6.38865431  12.62985751  1
  Mo  Mo52  1  1.60086227  7.90314101  14.30077146  1
  Mo  Mo53  1  0.13539983  9.44442707  12.65209929  1
  Mo  Mo54  1  1.61187394  11.07988325  14.28339507  1
  Mo  Mo55  1  3.17888699  6.31778841  12.70055461  1
  Mo  Mo56  1  3.21503981  9.33901690  12.63174409  1
  Mo  Mo57  1  4.65238526  1.64830478  1.54828627  1
  Mo  Mo58  1  4.63958630  4.81747092  1.64832464  1
  Mo  Mo59  1  6.42097440  0.04237705  0.12426107  1
  Mo  Mo60  1  7.89224849  1.50636448  1.81005418  1
  Mo  Mo61  1  6.36378124  -0.06921772  3.23070836  1
  Mo  Mo62  1  6.25909592  3.13346013  -0.06155622  1
  Mo  Mo63  1  7.93094324  4.74481774  1.70031481  1
  Mo  Mo64  1  6.22999295  3.27373231  3.13997380  1
  Mo  Mo65  1  4.67514337  1.43266871  4.78763317  1
  Mo  Mo66  1  4.67153901  4.56981264  4.59099198  1
  Mo  Mo67  1  7.90263461  1.80807824  4.73274363  1
  Mo  Mo68  1  6.39077919  0.14376135  6.30395680  1
  Mo  Mo69  1  7.86547892  4.77516189  4.70756275  1
  Mo  Mo70  1  6.16650457  3.14431293  6.31346914  1
  Mo  Mo71  1  4.78348270  1.55250625  8.07435309  1
  Mo  Mo72  1  4.80593300  1.58918533  11.10887701  1
  Mo  Mo73  1  4.68602596  4.59751557  8.00872990  1
  Mo  Mo74  1  4.76865815  4.82770810  11.09855046  1
  Mo  Mo75  1  7.86306608  1.56741023  7.76735691  1
  Mo  Mo76  1  6.48013357  0.02994826  9.53067356  1
  Mo  Mo77  1  7.95330417  1.60445670  11.07789738  1
  Mo  Mo78  1  7.64387529  4.75199667  7.99167125  1
  Mo  Mo79  1  6.27325520  3.14541509  9.51321773  1
  Mo  Mo80  1  7.97604242  4.65321933  11.01494519  1
  Mo  Mo81  1  4.60928187  1.55945680  14.09831166  1
  Mo  Mo82  1  4.67042692  4.72672643  14.14527757  1
  Mo  Mo83  1  6.56846522  -0.03086931  12.65577316  1
  Mo  Mo84  1  8.01791457  1.59073431  14.31814786  1
  Mo  Mo85  1  6.33881881  3.14622930  12.78932315  1
  Mo  Mo86  1  7.83368508  4.72141422  14.28548024  1
  Mo  Mo87  1  4.82035044  7.91110436  1.52028545  1
  Mo  Mo88  1  4.59839929  11.05188244  1.66674362  1
  Mo  Mo89  1  6.32937598  6.32977316  0.03838902  1
  Mo  Mo90  1  7.95544892  7.96302502  1.66828267  1
  Mo  Mo91  1  6.13442278  6.38569536  3.12326267  1
  Mo  Mo92  1  6.29482179  9.59844149  0.00335350  1
  Mo  Mo93  1  7.96244912  11.12138801  1.65248505  1
  Mo  Mo94  1  6.25099356  9.63099988  3.17771532  1
  Mo  Mo95  1  4.71985531  7.90819506  4.72931800  1
  Mo  Mo96  1  4.68697917  11.03549898  4.71385797  1
  Mo  Mo97  1  7.76151844  8.00448013  4.71010467  1
  Mo  Mo98  1  6.07839136  6.28198311  6.48838488  1
  Mo  Mo99  1  7.93929383  10.93660248  4.72460155  1
  Mo  Mo100  1  6.24206706  9.58773763  6.32774757  1
  Mo  Mo101  1  4.79923067  8.05293544  7.92837153  1
  Mo  Mo102  1  4.77861731  7.95035515  10.96976657  1
  Mo  Mo103  1  4.83381466  11.27092428  7.84222434  1
  Mo  Mo104  1  4.88346150  11.03301664  11.07789738  1
  Mo  Mo105  1  7.90098633  8.01403218  7.88600292  1
  Mo  Mo106  1  6.40176107  6.34505446  9.49055891  1
  Mo  Mo107  1  8.05539793  7.74096465  11.00541300  1
  Mo  Mo108  1  7.87142661  11.34807547  7.79566553  1
  Mo  Mo109  1  6.48489967  9.50026983  9.59125263  1
  Mo  Mo110  1  8.07658720  11.09030909  11.11135935  1
  Mo  Mo111  1  4.82985284  7.84064557  14.26770667  1
  Mo  Mo112  1  4.75793443  10.99508645  14.23801786  1
  Mo  Mo113  1  6.38273641  6.28464418  12.67871000  1
  Mo  Mo114  1  7.94417908  7.79019445  14.22153511  1
  Mo  Mo115  1  6.45955992  9.53747517  12.56303287  1
  Mo  Mo116  1  7.90540490  11.12099083  14.36799328  1
