# generated using pymatgen
data_Mo
_symmetry_space_group_name_H-M   'P 1'
_cell_length_a   9.53192021
_cell_length_b   12.70506924
_cell_length_c   15.89404120
_cell_angle_alpha   89.57720936
_cell_angle_beta   89.62696234
_cell_angle_gamma   89.60238955
_symmetry_Int_Tables_number   1
_chemical_formula_structural   Mo
_chemical_formula_sum   Mo121
_cell_volume   1924.68838784
_cell_formula_units_Z   121
loop_
 _symmetry_equiv_pos_site_id
 _symmetry_equiv_pos_as_xyz
  1  'x, y, z'
loop_
 _atom_site_type_symbol
 _atom_site_label
 _atom_site_symmetry_multiplicity
 _atom_site_fract_x
 _atom_site_fract_y
 _atom_site_fract_z
 _atom_site_occupancy
  Mo  Mo0  1  2.00541845  2.00273708  2.02639654  1
  Mo  Mo1  1  0.03555311  0.03487923  3.23414757  1
  Mo  Mo2  1  0.02431959  3.23050439  0.02467507  1
  Mo  Mo3  1  1.63626958  4.82831344  1.63804984  1
  Mo  Mo4  1  3.22973510  3.22937071  6.41666276  1
  Mo  Mo5  1  3.22041367  0.02114075  0.02036106  1
  Mo  Mo6  1  3.20899398  0.03846785  6.38356677  1
  Mo  Mo7  1  0.02200863  6.35245333  0.02341637  1
  Mo  Mo8  1  3.38673406  3.39316877  3.39261692  1
  Mo  Mo9  1  0.67849527  0.68741663  0.64947812  1
  Mo  Mo10  1  1.63962426  1.63881687  4.83932323  1
  Mo  Mo11  1  0.02976724  0.02969599  6.36883665  1
  Mo  Mo12  1  1.62801462  4.83606616  4.83802588  1
  Mo  Mo13  1  0.03950133  3.21187972  6.38781919  1
  Mo  Mo14  1  1.62169337  1.62470733  7.96446351  1
  Mo  Mo15  1  3.22369742  3.23107953  12.71676668  1
  Mo  Mo16  1  1.62051166  1.62689251  11.11366359  1
  Mo  Mo17  1  1.62901905  4.80032829  7.97501390  1
  Mo  Mo18  1  4.82289152  4.82562105  14.32624494  1
  Mo  Mo19  1  1.63123292  4.79816225  11.14116447  1
  Mo  Mo20  1  4.81302843  1.66350430  14.31040653  1
  Mo  Mo21  1  3.21428582  3.21580988  9.55746034  1
  Mo  Mo22  1  1.65043568  4.82483908  14.32230460  1
  Mo  Mo23  1  1.64447998  1.64755773  14.22349436  1
  Mo  Mo24  1  4.79648994  1.64855979  11.13427390  1
  Mo  Mo25  1  4.80704811  4.80370369  11.14832123  1
  Mo  Mo26  1  3.21939482  6.38434973  12.73847753  1
  Mo  Mo27  1  3.20952942  6.37838872  9.55182453  1
  Mo  Mo28  1  3.28049771  3.28507919  15.89697130  1
  Mo  Mo29  1  3.22493846  6.40746118  6.40804079  1
  Mo  Mo30  1  1.62674780  7.94725420  1.62924289  1
  Mo  Mo31  1  0.04023287  6.38657601  3.21623898  1
  Mo  Mo32  1  3.23279007  9.56844233  6.40464520  1
  Mo  Mo33  1  1.64510326  11.06811757  1.64209057  1
  Mo  Mo34  1  0.05232671  9.53789097  3.23022799  1
  Mo  Mo35  1  3.19886066  6.36703804  0.03854850  1
  Mo  Mo36  1  3.22913723  6.41512140  3.23156277  1
  Mo  Mo37  1  3.29013294  12.70921105  3.29497484  1
  Mo  Mo38  1  3.22982286  9.54871669  3.23410641  1
  Mo  Mo39  1  1.63880592  7.97774813  4.81055554  1
  Mo  Mo40  1  0.04588908  6.38868463  6.39246925  1
  Mo  Mo41  1  1.65546113  11.14436344  4.82827107  1
  Mo  Mo42  1  0.05803414  9.55864147  6.39260223  1
  Mo  Mo43  1  1.63641247  7.97573040  7.97754052  1
  Mo  Mo44  1  1.64906021  11.15318740  7.98813233  1
  Mo  Mo45  1  4.81191643  7.98608619  7.98229674  1
  Mo  Mo46  1  4.82614224  11.16130188  7.99491445  1
  Mo  Mo47  1  3.19690292  0.04635381  9.53665803  1
  Mo  Mo48  1  3.22152130  9.55748198  12.73212094  1
  Mo  Mo49  1  1.63922787  7.96590039  11.14160774  1
  Mo  Mo50  1  3.25404399  12.75505645  12.74236031  1
  Mo  Mo51  1  4.81164194  11.15829416  14.33276001  1
  Mo  Mo52  1  1.64873391  11.14605157  11.14988450  1
  Mo  Mo53  1  4.79794379  7.96486973  14.34474062  1
  Mo  Mo54  1  3.21948286  9.56581709  9.55678482  1
  Mo  Mo55  1  1.73065508  11.15725564  14.33398174  1
  Mo  Mo56  1  1.65278174  7.97640654  14.32616730  1
  Mo  Mo57  1  0.08125018  9.51532662  12.69049025  1
  Mo  Mo58  1  4.79425521  11.16524062  11.13368736  1
  Mo  Mo59  1  4.76020990  7.92755612  11.10248139  1
  Mo  Mo60  1  3.26066226  9.57814367  15.93841745  1
  Mo  Mo61  1  4.81580731  1.63810028  1.63895377  1
  Mo  Mo62  1  4.82950539  4.83156439  1.62691343  1
  Mo  Mo63  1  9.54619810  3.28110738  3.28113386  1
  Mo  Mo64  1  7.89679437  1.63921851  1.63771238  1
  Mo  Mo65  1  6.37340516  0.04135010  3.22931360  1
  Mo  Mo66  1  6.36678696  3.21829049  0.03324881  1
  Mo  Mo67  1  7.97466747  4.82002760  1.64549673  1
  Mo  Mo68  1  6.40592795  3.23895220  3.23955307  1
  Mo  Mo69  1  4.83319398  1.63117363  4.83798658  1
  Mo  Mo70  1  4.86723928  4.86887799  4.86917266  1
  Mo  Mo71  1  7.97871533  1.65035281  4.82181934  1
  Mo  Mo72  1  6.38652902  0.04517156  6.38817325  1
  Mo  Mo73  1  7.98822147  4.83053391  4.83009622  1
  Mo  Mo74  1  6.40796635  3.23061706  6.41487921  1
  Mo  Mo75  1  4.80130684  1.63509238  7.97674943  1
  Mo  Mo76  1  8.00070145  4.84917999  14.34243112  1
  Mo  Mo77  1  4.81553278  4.81034796  7.98936729  1
  Mo  Mo78  1  6.39762642  3.24771754  12.73757758  1
  Mo  Mo79  1  7.97838900  1.64324674  7.98353170  1
  Mo  Mo80  1  9.57512054  3.25854324  12.74145598  1
  Mo  Mo81  1  7.97198801  1.65202096  11.14342271  1
  Mo  Mo82  1  7.99103674  4.82070374  7.99412351  1
  Mo  Mo83  1  6.39465914  3.22799183  9.56701883  1
  Mo  Mo84  1  7.98864319  4.81868591  11.16107854  1
  Mo  Mo85  1  7.98234603  1.72835640  14.32955365  1
  Mo  Mo86  1  6.33731623  0.08719034  12.67670904  1
  Mo  Mo87  1  9.56941016  3.23779267  9.57906179  1
  Mo  Mo88  1  6.40251075  6.38897297  9.56362324  1
  Mo  Mo89  1  9.58721133  6.40985809  12.75541506  1
  Mo  Mo90  1  6.39831201  6.38131278  12.74011124  1
  Mo  Mo91  1  9.58156472  6.40774953  9.57919479  1
  Mo  Mo92  1  6.42858861  6.42939616  15.93312962  1
  Mo  Mo93  1  4.80455776  7.97081318  1.64543905  1
  Mo  Mo94  1  4.81442051  11.13287987  1.66122738  1
  Mo  Mo95  1  6.41316340  9.58062427  6.41420369  1
  Mo  Mo96  1  7.97701358  7.97159511  1.64936941  1
  Mo  Mo97  1  6.40805424  6.41208424  3.23313659  1
  Mo  Mo98  1  6.34695144  9.51135489  0.07467268  1
  Mo  Mo99  1  7.98296913  11.14884651  1.74816957  1
  Mo  Mo100  1  6.40375170  9.56535451  3.25486741  1
  Mo  Mo101  1  4.82040100  7.99273034  4.82331285  1
  Mo  Mo102  1  4.83095934  11.14790424  4.83738026  1
  Mo  Mo103  1  7.99621616  7.99827176  4.83045964  1
  Mo  Mo104  1  6.41791979  6.41804542  6.41983950  1
  Mo  Mo105  1  8.00693766  11.16957156  4.85800055  1
  Mo  Mo106  1  7.99843016  7.99610586  7.99665013  1
  Mo  Mo107  1  8.00575581  11.17171684  8.00720048  1
  Mo  Mo108  1  8.94895499  12.10905632  15.32216011  1
  Mo  Mo109  1  7.62203074  10.79369704  13.94525751  1
  Mo  Mo110  1  6.24071502  9.40326522  12.57900718  1
  Mo  Mo111  1  7.99117952  7.96812057  14.33357426  1
  Mo  Mo112  1  9.59189872  12.76155258  12.73752644  1
  Mo  Mo113  1  9.58794500  9.58455442  9.58384483  1
  Mo  Mo114  1  7.99943456  7.96036795  11.13362817  1
  Mo  Mo115  1  9.59768644  12.76671383  9.60282730  1
  Mo  Mo116  1  6.39771411  9.56706344  9.55500127  1
  Mo  Mo117  1  7.98782508  11.15760749  11.13239066  1
  Mo  Mo118  1  6.41845536  12.75800266  9.58809740  1
  Mo  Mo119  1  9.60312865  9.56592987  15.94701937  1
  Mo  Mo120  1  6.40703568  12.77532907  15.95130522  1
