# generated using pymatgen
data_Mo
_symmetry_space_group_name_H-M   'P 1'
_cell_length_a   9.57990232
_cell_length_b   12.73814676
_cell_length_c   15.96771834
_cell_angle_alpha   90.00000000
_cell_angle_beta   90.00000000
_cell_angle_gamma   90.00000000
_symmetry_Int_Tables_number   1
_chemical_formula_structural   Mo
_chemical_formula_sum   Mo121
_cell_volume   1948.54388862
_cell_formula_units_Z   121
loop_
 _symmetry_equiv_pos_site_id
 _symmetry_equiv_pos_as_xyz
  1  'x, y, z'
loop_
 _atom_site_type_symbol
 _atom_site_label
 _atom_site_symmetry_multiplicity
 _atom_site_fract_x
 _atom_site_fract_y
 _atom_site_fract_z
 _atom_site_occupancy
  Mo  Mo0  1  1.69744522  1.74676439  1.58279082  1
  Mo  Mo1  1  -0.11986931  0.01041740  3.23615958  1
  Mo  Mo2  1  0.12914135  3.26327668  -0.03500311  1
  Mo  Mo3  1  1.52447564  4.84301918  1.59618553  1
  Mo  Mo4  1  3.21598310  -0.01386199  -0.04806628  1
  Mo  Mo5  1  -0.03368846  6.33262289  -0.06056199  1
  Mo  Mo6  1  3.22000450  3.21507953  3.17525284  1
  Mo  Mo7  1  0.24715288  0.26401791  0.18684488  1
  Mo  Mo8  1  3.06031048  3.07698189  6.25573980  1
  Mo  Mo9  1  3.08228417  -0.14903981  6.30641929  1
  Mo  Mo10  1  1.58508450  1.54330172  4.69193393  1
  Mo  Mo11  1  -0.08454161  -0.02701066  6.28578606  1
  Mo  Mo12  1  1.56259448  4.79460359  4.72380720  1
  Mo  Mo13  1  -0.10492164  3.12702590  6.32993203  1
  Mo  Mo14  1  1.45512894  1.58843070  7.79628116  1
  Mo  Mo15  1  1.64968497  1.51964997  11.10222433  1
  Mo  Mo16  1  1.53790015  4.68437768  7.84106260  1
  Mo  Mo17  1  1.59187619  4.74568159  11.05833652  1
  Mo  Mo18  1  3.11526953  3.06215734  9.54372074  1
  Mo  Mo19  1  4.77008798  1.49674292  11.14780013  1
  Mo  Mo20  1  4.72065959  4.51356277  11.14919024  1
  Mo  Mo21  1  3.10443659  6.22059976  9.52694011  1
  Mo  Mo22  1  3.17599754  3.16585966  12.69896591  1
  Mo  Mo23  1  4.86117007  4.85014847  14.28418942  1
  Mo  Mo24  1  4.78369121  1.60864689  14.41764012  1
  Mo  Mo25  1  1.61052354  4.79228012  14.22620191  1
  Mo  Mo26  1  1.62537787  1.66585991  14.37822053  1
  Mo  Mo27  1  3.19058378  6.25906613  12.77472698  1
  Mo  Mo28  1  3.27469545  3.25369484  15.90694594  1
  Mo  Mo29  1  1.46858323  8.10518378  1.46586259  1
  Mo  Mo30  1  -0.07001435  6.40427320  3.12259740  1
  Mo  Mo31  1  1.65933631  11.13657994  1.61505133  1
  Mo  Mo32  1  -0.04734809  9.54903296  3.01501271  1
  Mo  Mo33  1  3.06206798  6.41757856  -0.10361891  1
  Mo  Mo34  1  3.07619747  6.36323513  3.14016245  1
  Mo  Mo35  1  3.21972648  12.60255175  3.12786990  1
  Mo  Mo36  1  3.19903367  9.45257908  3.10296704  1
  Mo  Mo37  1  3.20491186  6.39155368  6.36187480  1
  Mo  Mo38  1  3.18202467  9.43637435  6.42115313  1
  Mo  Mo39  1  1.52645159  7.94966009  4.63331094  1
  Mo  Mo40  1  0.01263145  6.39180192  6.36217269  1
  Mo  Mo41  1  1.64969490  11.03361240  4.72956623  1
  Mo  Mo42  1  -0.04126893  9.52982956  6.23583141  1
  Mo  Mo43  1  1.57303025  7.99024142  7.92568067  1
  Mo  Mo44  1  1.42815085  11.18692183  7.91727050  1
  Mo  Mo45  1  4.78657073  7.89573370  7.94450675  1
  Mo  Mo46  1  4.74472838  10.96688705  7.92610763  1
  Mo  Mo47  1  3.15122377  12.65289364  9.40052934  1
  Mo  Mo48  1  1.61790106  7.99447133  11.06002452  1
  Mo  Mo49  1  1.54035270  11.15445280  11.07293270  1
  Mo  Mo50  1  3.15235572  9.58116439  9.41927598  1
  Mo  Mo51  1  4.65241505  11.13787076  11.01137062  1
  Mo  Mo52  1  4.56985236  7.57320799  10.96033367  1
  Mo  Mo53  1  3.11433617  9.47952738  12.59014004  1
  Mo  Mo54  1  3.11220136  12.73203070  12.76152092  1
  Mo  Mo55  1  4.69181478  11.18721971  14.28766470  1
  Mo  Mo56  1  4.80970616  7.87979706  14.32162314  1
  Mo  Mo57  1  1.63643919  11.22713577  14.32877228  1
  Mo  Mo58  1  1.64521675  8.01351586  14.21845701  1
  Mo  Mo59  1  0.08199920  9.59954365  12.83708341  1
  Mo  Mo60  1  3.16503552  9.58869085  15.87288821  1
  Mo  Mo61  1  4.73779768  1.57746868  1.63810732  1
  Mo  Mo62  1  4.81286369  4.90230744  1.50019834  1
  Mo  Mo63  1  9.58599006  3.27510256  3.20668922  1
  Mo  Mo64  1  7.95831850  1.65535464  1.71294497  1
  Mo  Mo65  1  6.40916838  -0.03533415  3.14435265  1
  Mo  Mo66  1  6.36917289  3.11467377  0.03964072  1
  Mo  Mo67  1  8.02858864  4.68625433  1.47027123  1
  Mo  Mo68  1  6.25939380  3.25668358  3.21269648  1
  Mo  Mo69  1  4.68207407  1.56195900  4.74891857  1
  Mo  Mo70  1  4.75597835  4.72537604  4.75057677  1
  Mo  Mo71  1  7.84283996  1.53256808  4.75999974  1
  Mo  Mo72  1  6.29020463  -0.11081571  6.36009745  1
  Mo  Mo73  1  7.86012699  4.80410599  4.68614511  1
  Mo  Mo74  1  6.25626605  3.13470130  6.29137630  1
  Mo  Mo75  1  4.69333397  1.50109198  7.99480893  1
  Mo  Mo76  1  4.78359192  4.62933920  7.92433028  1
  Mo  Mo77  1  7.86911307  1.51167669  7.87087056  1
  Mo  Mo78  1  7.94767422  1.60594610  11.02894560  1
  Mo  Mo79  1  7.93374332  4.68721748  7.97943827  1
  Mo  Mo80  1  6.37584542  3.05969486  9.45287696  1
  Mo  Mo81  1  8.05824766  4.82197885  11.13211173  1
  Mo  Mo82  1  9.57153290  3.14317105  9.54241007  1
  Mo  Mo83  1  6.38420595  6.27347365  9.57944661  1
  Mo  Mo84  1  9.50765728  6.36626358  9.60986026  1
  Mo  Mo85  1  7.97188202  4.72489943  14.31040295  1
  Mo  Mo86  1  6.51210613  3.09439800  12.66034067  1
  Mo  Mo87  1  9.60943330  3.25124229  12.79269914  1
  Mo  Mo88  1  7.91119372  1.67274096  14.27584875  1
  Mo  Mo89  1  6.42365533  -0.02266299  12.67851141  1
  Mo  Mo90  1  9.55774101  6.37624260  12.62816952  1
  Mo  Mo91  1  6.31964520  6.42471777  12.69380264  1
  Mo  Mo92  1  6.42997041  6.28954929  15.94785494  1
  Mo  Mo93  1  4.66244371  7.89762028  1.51955068  1
  Mo  Mo94  1  4.73321031  11.04741422  1.65675468  1
  Mo  Mo95  1  7.94297763  7.93251208  1.44637124  1
  Mo  Mo96  1  6.35001914  6.33542297  3.10070315  1
  Mo  Mo97  1  6.21137538  9.55646012  -0.05901520  1
  Mo  Mo98  1  8.07797731  11.18791477  1.66208675  1
  Mo  Mo99  1  6.41427208  9.43326646  3.13850425  1
  Mo  Mo100  1  6.43732807  9.51796396  6.34497502  1
  Mo  Mo101  1  4.80431451  7.92877863  4.80386769  1
  Mo  Mo102  1  4.81784824  10.96768140  4.87680882  1
  Mo  Mo103  1  8.00866040  7.96844646  4.78523027  1
  Mo  Mo104  1  6.38089947  6.30163333  6.30502918  1
  Mo  Mo105  1  7.96219096  11.07620939  4.81768937  1
  Mo  Mo106  1  7.97299411  7.85674107  7.94568835  1
  Mo  Mo107  1  8.00156090  11.10401162  7.85245159  1
  Mo  Mo108  1  9.59644569  9.50551254  9.60619632  1
  Mo  Mo109  1  8.08264411  7.90896955  11.14015451  1
  Mo  Mo110  1  9.49221712  12.70323554  9.40383582  1
  Mo  Mo111  1  6.31562381  9.42361512  9.45086130  1
  Mo  Mo112  1  7.94224286  11.08812463  11.10947277  1
  Mo  Mo113  1  6.33861030  12.60205528  9.45047405  1
  Mo  Mo114  1  8.41477152  11.75944916  14.80250240  1
  Mo  Mo115  1  7.18190154  10.23936230  13.56212582  1
  Mo  Mo116  1  5.79138300  9.11143580  12.14868036  1
  Mo  Mo117  1  7.89140450  7.96659960  14.35736886  1
  Mo  Mo118  1  9.63364110  12.83549471  12.66987286  1
  Mo  Mo119  1  9.62286773  9.68104390  15.93643616  1
  Mo  Mo120  1  6.38933943  12.83837423  16.04814155  1
