# generated using pymatgen
data_Mo
_symmetry_space_group_name_H-M   'P 1'
_cell_length_a   9.55159201
_cell_length_b   12.76259744
_cell_length_c   15.92100820
_cell_angle_alpha   90.00000000
_cell_angle_beta   90.00000000
_cell_angle_gamma   90.00000000
_symmetry_Int_Tables_number   1
_chemical_formula_structural   Mo
_chemical_formula_sum   Mo121
_cell_volume   1940.82063272
_cell_formula_units_Z   121
loop_
 _symmetry_equiv_pos_site_id
 _symmetry_equiv_pos_as_xyz
  1  'x, y, z'
loop_
 _atom_site_type_symbol
 _atom_site_label
 _atom_site_symmetry_multiplicity
 _atom_site_fract_x
 _atom_site_fract_y
 _atom_site_fract_z
 _atom_site_occupancy
  Mo  Mo0  1  1.59237266  1.61527971  1.64313158  1
  Mo  Mo1  1  -0.10585599  3.19477398  3.08849003  1
  Mo  Mo2  1  -0.14400264  3.20629204  6.26971042  1
  Mo  Mo3  1  1.62417642  4.80736283  1.54889196  1
  Mo  Mo4  1  3.26144968  -0.10470617  0.07657270  1
  Mo  Mo5  1  4.76613609  4.73639764  1.54854443  1
  Mo  Mo6  1  3.18154806  3.20844671  3.22087828  1
  Mo  Mo7  1  0.16714700  0.04130835  0.00867107  1
  Mo  Mo8  1  3.17771532  3.23906888  6.41012160  1
  Mo  Mo9  1  3.15832327  0.00891721  6.29315365  1
  Mo  Mo10  1  1.51825986  1.56013200  4.69522055  1
  Mo  Mo11  1  1.58174823  4.84591856  4.74231554  1
  Mo  Mo12  1  -0.01983510  6.35976978  3.21477172  1
  Mo  Mo13  1  3.15393449  0.05992651  3.16811362  1
  Mo  Mo14  1  1.29738108  4.58763585  7.72549469  1
  Mo  Mo15  1  3.32044005  3.06454039  -0.00498177  1
  Mo  Mo16  1  1.54746213  1.58755691  7.89842456  1
  Mo  Mo17  1  1.51795205  1.57851126  11.07332987  1
  Mo  Mo18  1  3.21872361  0.05444788  12.77889732  1
  Mo  Mo19  1  1.51247104  4.71150471  11.09666388  1
  Mo  Mo20  1  3.15778708  3.11715611  9.48147354  1
  Mo  Mo21  1  4.72451218  1.57996095  11.20975938  1
  Mo  Mo22  1  -0.03565745  0.03804338  9.46284605  1
  Mo  Mo23  1  2.80176961  5.88030048  9.04992337  1
  Mo  Mo24  1  3.24275268  3.07885854  12.72865472  1
  Mo  Mo25  1  4.80772028  4.63737205  14.21706690  1
  Mo  Mo26  1  0.07711862  6.27537016  12.85495627  1
  Mo  Mo27  1  1.67625595  4.72377741  14.35359570  1
  Mo  Mo28  1  1.66304989  1.63506894  14.32758076  1
  Mo  Mo29  1  0.01390975  6.31461102  9.55360046  1
  Mo  Mo30  1  0.05614511  3.15904811  12.80074192  1
  Mo  Mo31  1  3.23980366  -0.05354531  9.40948563  1
  Mo  Mo32  1  0.05364897  0.10494845  12.69499416  1
  Mo  Mo33  1  1.62834676  7.96574567  1.54776994  1
  Mo  Mo34  1  4.80852456  11.27072569  4.68932251  1
  Mo  Mo35  1  1.53982644  11.14204109  1.65372622  1
  Mo  Mo36  1  0.01356272  9.50503593  3.22734230  1
  Mo  Mo37  1  3.08821200  6.26934303  0.02189743  1
  Mo  Mo38  1  3.24442081  6.32720145  3.13512827  1
  Mo  Mo39  1  1.63130571  7.84489534  7.91320939  1
  Mo  Mo40  1  3.24001217  9.51632562  3.19409878  1
  Mo  Mo41  1  3.22010379  6.32638725  6.32379568  1
  Mo  Mo42  1  3.14122490  9.57831466  6.30224895  1
  Mo  Mo43  1  1.62895245  8.00206730  4.71712473  1
  Mo  Mo44  1  1.58352559  11.14124674  7.94763450  1
  Mo  Mo45  1  1.60283821  11.14402697  4.80634010  1
  Mo  Mo46  1  0.08361530  12.69995884  3.19177531  1
  Mo  Mo47  1  0.03141970  6.43096334  0.00996948  1
  Mo  Mo48  1  0.05254820  12.67314955  6.36093151  1
  Mo  Mo49  1  3.19482362  9.61913429  -0.02876270  1
  Mo  Mo50  1  -0.05109206  9.70068418  12.74225795  1
  Mo  Mo51  1  1.54720396  8.03438739  11.17242496  1
  Mo  Mo52  1  1.59839978  11.23488068  11.09140132  1
  Mo  Mo53  1  3.15489764  9.64379884  9.43407074  1
  Mo  Mo54  1  4.69431698  11.21055373  11.15137470  1
  Mo  Mo55  1  3.98930210  7.27159352  10.46326953  1
  Mo  Mo56  1  3.18023738  9.60417073  12.74235724  1
  Mo  Mo57  1  1.57378488  8.00921644  14.33492849  1
  Mo  Mo58  1  3.18735674  6.34623605  12.89715608  1
  Mo  Mo59  1  4.74052825  7.92206638  14.32976522  1
  Mo  Mo60  1  1.59632455  11.23478138  14.33780801  1
  Mo  Mo61  1  4.73412381  1.58910590  1.63308306  1
  Mo  Mo62  1  6.41734025  3.08414096  6.34643464  1
  Mo  Mo63  1  7.95396944  4.81172182  4.71631053  1
  Mo  Mo64  1  8.02020825  1.67006003  1.53592420  1
  Mo  Mo65  1  6.38925007  0.01932185  3.11399857  1
  Mo  Mo66  1  9.55053229  6.28447539  6.40511720  1
  Mo  Mo67  1  7.85986882  4.88372959  1.48532415  1
  Mo  Mo68  1  6.38933943  3.14502784  3.17699048  1
  Mo  Mo69  1  4.78124859  1.61003700  4.81097712  1
  Mo  Mo70  1  4.72838464  4.73688418  4.77873646  1
  Mo  Mo71  1  8.03057451  1.52493239  4.77115042  1
  Mo  Mo72  1  6.29746300  0.01772680  6.21535706  1
  Mo  Mo73  1  9.62998709  3.26776476  -0.08299005  1
  Mo  Mo74  1  4.70642088  1.57527429  7.85843900  1
  Mo  Mo75  1  4.82477894  4.81511766  7.89906997  1
  Mo  Mo76  1  6.43576916  -0.00668932  0.05887678  1
  Mo  Mo77  1  7.88595327  4.75425064  7.91152139  1
  Mo  Mo78  1  6.29973682  0.10940971  9.49080714  1
  Mo  Mo79  1  4.90557420  4.70108881  11.15921890  1
  Mo  Mo80  1  7.86264905  1.50603681  7.90736099  1
  Mo  Mo81  1  7.96998551  1.58045742  11.11960072  1
  Mo  Mo82  1  6.34612683  0.01690852  12.79885534  1
  Mo  Mo83  1  6.39423461  3.18564889  9.52592732  1
  Mo  Mo84  1  7.95855681  4.66117275  11.12585622  1
  Mo  Mo85  1  9.48098700  3.11686816  9.58046933  1
  Mo  Mo86  1  6.44299774  6.37400849  9.60472678  1
  Mo  Mo87  1  4.81117570  1.51506260  14.40304395  1
  Mo  Mo88  1  7.97420549  4.78412811  14.29382091  1
  Mo  Mo89  1  6.41676435  3.10509193  12.77552133  1
  Mo  Mo90  1  6.38147538  6.19811968  12.76797501  1
  Mo  Mo91  1  8.05127724  1.61458465  14.37603607  1
  Mo  Mo92  1  6.38692660  3.19627331  15.99303356  1
  Mo  Mo93  1  4.79144605  8.00473830  1.56346827  1
  Mo  Mo94  1  4.74512555  11.16388570  1.60519147  1
  Mo  Mo95  1  8.03068373  7.90616946  1.60747523  1
  Mo  Mo96  1  6.38153495  6.39102743  3.12381872  1
  Mo  Mo97  1  6.37146657  9.59912661  0.03424142  1
  Mo  Mo98  1  7.99228687  11.13578559  1.61971814  1
  Mo  Mo99  1  6.48440320  9.48402539  3.19986774  1
  Mo  Mo100  1  6.40382638  9.53438714  6.44874684  1
  Mo  Mo101  1  4.75984087  7.92191744  4.69393966  1
  Mo  Mo102  1  4.92671382  7.94262017  7.89750113  1
  Mo  Mo103  1  7.93455753  7.94098183  4.79138647  1
  Mo  Mo104  1  6.31903951  6.30589303  6.29357069  1
  Mo  Mo105  1  7.93222412  11.08435147  4.74521491  1
  Mo  Mo106  1  4.87287679  11.18066633  7.89285418  1
  Mo  Mo107  1  9.64025405  9.49728109  6.30582353  1
  Mo  Mo108  1  9.53390060  9.60961203  9.54136748  1
  Mo  Mo109  1  7.93099288  7.94029670  11.20161730  1
  Mo  Mo110  1  4.78789134  11.15792808  14.39559692  1
  Mo  Mo111  1  6.44881635  9.62241098  9.53313604  1
  Mo  Mo112  1  7.93111204  11.34281290  11.10897630  1
  Mo  Mo113  1  9.62568767  9.57018251  15.96165676  1
  Mo  Mo114  1  8.13804998  11.29554911  14.49647930  1
  Mo  Mo115  1  6.65979555  9.99678785  12.98890344  1
  Mo  Mo116  1  5.39863680  8.55819131  11.68726266  1
  Mo  Mo117  1  8.04293657  7.91939538  14.32956663  1
  Mo  Mo118  1  6.35722786  6.40520656  15.93593970  1
  Mo  Mo119  1  8.01174843  11.11314663  7.91500660  1
  Mo  Mo120  1  8.04192378  7.91788612  8.02861842  1
