# generated using pymatgen
data_Mo
_symmetry_space_group_name_H-M   'P 1'
_cell_length_a   9.49732090
_cell_length_b   12.75888250
_cell_length_c   15.77528131
_cell_angle_alpha   90.00000000
_cell_angle_beta   90.00000000
_cell_angle_gamma   90.00000000
_symmetry_Int_Tables_number   1
_chemical_formula_structural   Mo
_chemical_formula_sum   Mo121
_cell_volume   1911.57288945
_cell_formula_units_Z   121
loop_
 _symmetry_equiv_pos_site_id
 _symmetry_equiv_pos_as_xyz
  1  'x, y, z'
loop_
 _atom_site_type_symbol
 _atom_site_label
 _atom_site_symmetry_multiplicity
 _atom_site_fract_x
 _atom_site_fract_y
 _atom_site_fract_z
 _atom_site_occupancy
  Mo  Mo0  1  1.68727755  1.56894928  1.70087086  1
  Mo  Mo1  1  0.08718372  3.19336401  3.24074695  1
  Mo  Mo2  1  3.18123032  3.20703674  0.01577608  1
  Mo  Mo3  1  1.63043192  4.73500752  1.61187394  1
  Mo  Mo4  1  3.26663281  3.15335858  3.13207002  1
  Mo  Mo5  1  0.01868518  3.21089927  0.13668867  1
  Mo  Mo6  1  3.22053075  0.06937192  3.25880847  1
  Mo  Mo7  1  0.21424000  -0.00408360  3.31676618  1
  Mo  Mo8  1  3.28697808  -0.00696681  0.14152327  1
  Mo  Mo9  1  0.09008101  0.06810245  0.04515797  1
  Mo  Mo10  1  0.00971874  -0.05275225  6.37684829  1
  Mo  Mo11  1  0.61082986  3.90439608  7.09031306  1
  Mo  Mo12  1  3.26057589  3.34011013  6.42747814  1
  Mo  Mo13  1  1.69192450  1.61506126  4.77744564  1
  Mo  Mo14  1  1.66222576  4.81381691  4.70322362  1
  Mo  Mo15  1  3.26319725  0.13164355  6.39682618  1
  Mo  Mo16  1  1.64686503  1.52746438  7.91175970  1
  Mo  Mo17  1  1.65667524  1.60669081  11.11106147  1
  Mo  Mo18  1  1.61976778  4.78631257  11.14462273  1
  Mo  Mo19  1  3.27699907  3.21663844  9.64209099  1
  Mo  Mo20  1  0.04307866  0.02084095  9.49572218  1
  Mo  Mo21  1  2.02989038  5.15531765  8.43736084  1
  Mo  Mo22  1  3.24282218  0.10962022  9.63280703  1
  Mo  Mo23  1  0.07998741  3.20894318  9.65504881  1
  Mo  Mo24  1  4.76584814  1.70189358  7.92640552  1
  Mo  Mo25  1  3.14471011  0.10105415  12.80511085  1
  Mo  Mo26  1  0.03012789  0.04481491  12.60523268  1
  Mo  Mo27  1  3.23247578  3.10416850  12.66143290  1
  Mo  Mo28  1  1.71379889  4.88074085  14.29898418  1
  Mo  Mo29  1  1.58664341  1.54916998  14.32033232  1
  Mo  Mo30  1  0.15483359  3.19352288  12.73193141  1
  Mo  Mo31  1  3.25508495  6.34626584  12.66619900  1
  Mo  Mo32  1  1.67070544  7.90100619  1.61321440  1
  Mo  Mo33  1  0.06469350  9.62897429  0.08151306  1
  Mo  Mo34  1  1.61275765  11.12297671  1.73697404  1
  Mo  Mo35  1  3.25411188  9.57229746  0.11212242  1
  Mo  Mo36  1  3.21782997  6.44781348  0.08492002  1
  Mo  Mo37  1  3.27336492  6.37681850  3.20818855  1
  Mo  Mo38  1  0.11104806  6.31617986  3.22094779  1
  Mo  Mo39  1  3.20119828  9.55424587  3.26409089  1
  Mo  Mo40  1  0.06419048  9.55649984  3.14868185  1
  Mo  Mo41  1  -0.03581731  6.41414299  0.06303589  1
  Mo  Mo42  1  3.21962718  6.37807953  6.32890930  1
  Mo  Mo43  1  3.22820616  9.65702476  6.50313992  1
  Mo  Mo44  1  1.68003904  8.03619453  4.78789134  1
  Mo  Mo45  1  1.67194661  11.12953009  4.81203956  1
  Mo  Mo46  1  0.07597456  9.69741742  6.37727525  1
  Mo  Mo47  1  0.17021120  6.52376321  6.47308372  1
  Mo  Mo48  1  1.75196738  8.02968087  11.25354789  1
  Mo  Mo49  1  1.66725002  11.23855454  11.13687782  1
  Mo  Mo50  1  3.22715364  9.65648857  9.68369504  1
  Mo  Mo51  1  3.41868121  6.67517614  9.82032313  1
  Mo  Mo52  1  1.63181210  11.17659529  8.01386338  1
  Mo  Mo53  1  0.00693256  9.57840402  9.55696652  1
  Mo  Mo54  1  0.08146758  6.45794143  9.69082432  1
  Mo  Mo55  1  1.66669397  8.09880912  8.03378170  1
  Mo  Mo56  1  0.06527854  9.64595351  12.79696876  1
  Mo  Mo57  1  1.63070995  11.24878179  14.32470124  1
  Mo  Mo58  1  3.28299641  9.65647864  12.75725129  1
  Mo  Mo59  1  1.61441585  8.04731542  14.25807518  1
  Mo  Mo60  1  0.10910091  6.36274859  12.65408517  1
  Mo  Mo61  1  6.44772412  6.37415743  3.33114391  1
  Mo  Mo62  1  7.95129844  1.60377157  1.65805542  1
  Mo  Mo63  1  6.38727413  0.00869406  0.02343291  1
  Mo  Mo64  1  7.95543899  4.73122444  1.72158352  1
  Mo  Mo65  1  6.36755440  3.22144426  3.24241508  1
  Mo  Mo66  1  4.83755803  4.72958609  1.55972490  1
  Mo  Mo67  1  4.85061515  1.69736579  1.59159817  1
  Mo  Mo68  1  6.33538325  3.21905128  6.41589056  1
  Mo  Mo69  1  8.09784597  4.97309390  4.89135534  1
  Mo  Mo70  1  4.76531195  4.75880822  4.82155189  1
  Mo  Mo71  1  4.83622750  1.60237153  4.82387536  1
  Mo  Mo72  1  7.59479443  1.12430228  4.45257660  1
  Mo  Mo73  1  8.83439652  2.54744872  5.74201418  1
  Mo  Mo74  1  6.29934958  0.03176782  9.52288893  1
  Mo  Mo75  1  4.92467830  4.84719945  11.14700578  1
  Mo  Mo76  1  8.06880257  1.57733960  8.10103330  1
  Mo  Mo77  1  7.99356776  1.56537471  11.25732105  1
  Mo  Mo78  1  6.37644119  3.25928508  9.54391933  1
  Mo  Mo79  1  7.91253419  4.74715114  11.15445280  1
  Mo  Mo80  1  4.87735494  1.58672285  11.06369838  1
  Mo  Mo81  1  7.91004192  4.78325432  7.98262559  1
  Mo  Mo82  1  4.86679009  4.80257687  8.03761443  1
  Mo  Mo83  1  6.40866198  0.02609557  12.69946238  1
  Mo  Mo84  1  7.93337593  1.63100783  14.18310846  1
  Mo  Mo85  1  4.77082275  4.79174393  14.24486913  1
  Mo  Mo86  1  4.80687629  1.64159253  14.31943868  1
  Mo  Mo87  1  8.05324326  4.82114479  14.30563685  1
  Mo  Mo88  1  6.30160354  3.22412519  12.73739256  1
  Mo  Mo89  1  6.33306971  3.12313359  15.80804944  1
  Mo  Mo90  1  4.86315594  7.88186237  1.65656602  1
  Mo  Mo91  1  6.41215712  6.41053863  0.07999992  1
  Mo  Mo92  1  8.04157625  7.98069930  1.63986482  1
  Mo  Mo93  1  4.74306024  11.02070422  1.64248617  1
  Mo  Mo94  1  6.49384603  9.50299048  0.08702376  1
  Mo  Mo95  1  8.04472386  11.22802941  1.64010313  1
  Mo  Mo96  1  6.43430954  9.47881247  3.19294697  1
  Mo  Mo97  1  6.20080061  12.62459495  3.08720914  1
  Mo  Mo98  1  6.35396110  9.59284132  6.40344907  1
  Mo  Mo99  1  4.87773225  8.03448668  4.82971383  1
  Mo  Mo100  1  6.45103059  12.82109713  6.52442848  1
  Mo  Mo101  1  8.06811745  7.94405993  4.81333038  1
  Mo  Mo102  1  6.42561141  6.37162544  6.50620809  1
  Mo  Mo103  1  8.02428922  11.11691979  4.83069684  1
  Mo  Mo104  1  4.76388213  11.17719105  4.80973594  1
  Mo  Mo105  1  8.00227581  7.99534511  11.21512124  1
  Mo  Mo106  1  6.46174438  9.66896978  9.57887070  1
  Mo  Mo107  1  7.99228687  11.20280882  11.15524715  1
  Mo  Mo108  1  7.91086606  11.23468209  8.04799062  1
  Mo  Mo109  1  4.94320650  8.08387535  11.13916158  1
  Mo  Mo110  1  6.45752440  6.37754335  9.64591379  1
  Mo  Mo111  1  4.81431338  11.33596164  11.08713169  1
  Mo  Mo112  1  4.80781958  11.18999994  8.03637326  1
  Mo  Mo113  1  4.84469725  7.98823569  7.97155435  1
  Mo  Mo114  1  7.98673635  8.05484188  8.05688733  1
  Mo  Mo115  1  6.44675104  6.37105947  12.70561858  1
  Mo  Mo116  1  4.81824541  11.19049641  14.20227214  1
  Mo  Mo117  1  7.99959488  11.23339127  14.31556622  1
  Mo  Mo118  1  6.41239543  9.65327146  12.65051059  1
  Mo  Mo119  1  7.98866265  7.97300404  14.21379021  1
  Mo  Mo120  1  4.78723600  8.05406739  14.30355169  1
