# generated using pymatgen
data_Mo
_symmetry_space_group_name_H-M   'P 1'
_cell_length_a   9.54298342
_cell_length_b   12.71479002
_cell_length_c   15.94678675
_cell_angle_alpha   90.00000000
_cell_angle_beta   90.00000000
_cell_angle_gamma   90.00000000
_symmetry_Int_Tables_number   1
_chemical_formula_structural   Mo
_chemical_formula_sum   Mo121
_cell_volume   1934.93574674
_cell_formula_units_Z   121
loop_
 _symmetry_equiv_pos_site_id
 _symmetry_equiv_pos_as_xyz
  1  'x, y, z'
loop_
 _atom_site_type_symbol
 _atom_site_label
 _atom_site_symmetry_multiplicity
 _atom_site_fract_x
 _atom_site_fract_y
 _atom_site_fract_z
 _atom_site_occupancy
  Mo  Mo0  1  1.70962856  1.83769754  1.62539773  1
  Mo  Mo1  1  0.18491461  3.28941078  3.32951549  1
  Mo  Mo2  1  3.32859206  3.23684471  0.04555326  1
  Mo  Mo3  1  1.73837408  4.94716832  1.79520978  1
  Mo  Mo4  1  3.34660393  3.26554058  3.33749870  1
  Mo  Mo5  1  0.10302017  3.38251846  0.13579403  1
  Mo  Mo6  1  3.23057927  0.05540061  3.24208741  1
  Mo  Mo7  1  0.12474066  0.21318451  3.37290683  1
  Mo  Mo8  1  3.35128067  0.18945332  0.11479044  1
  Mo  Mo9  1  0.08729850  0.16564171  0.01969172  1
  Mo  Mo10  1  3.23038069  0.07196746  6.40574275  1
  Mo  Mo11  1  0.17730772  3.30750208  6.49928732  1
  Mo  Mo12  1  3.30605240  3.23390561  6.39120616  1
  Mo  Mo13  1  1.69151739  1.73665630  4.91699297  1
  Mo  Mo14  1  1.76065558  4.91979305  4.91130344  1
  Mo  Mo15  1  0.16059362  -0.04685251  6.52723849  1
  Mo  Mo16  1  1.74152169  1.71893237  11.21075232  1
  Mo  Mo17  1  1.81372805  4.95478414  11.28770491  1
  Mo  Mo18  1  3.32859206  3.29473292  9.64775073  1
  Mo  Mo19  1  0.16896010  0.01707166  9.59245408  1
  Mo  Mo20  1  1.65971363  4.84955271  8.00184885  1
  Mo  Mo21  1  3.28271838  0.19265257  9.53994758  1
  Mo  Mo22  1  0.10525924  3.30707512  9.65062031  1
  Mo  Mo23  1  1.69981834  1.67935392  8.08679459  1
  Mo  Mo24  1  1.73043058  1.64475007  14.38864637  1
  Mo  Mo25  1  0.12517159  3.20526932  12.79726665  1
  Mo  Mo26  1  1.77614539  4.94134971  14.49707506  1
  Mo  Mo27  1  0.22702506  0.15827908  12.79716735  1
  Mo  Mo28  1  3.28921219  3.38920092  12.84274315  1
  Mo  Mo29  1  4.83441042  1.61991672  8.01379388  1
  Mo  Mo30  1  3.32352808  0.08228953  12.82318229  1
  Mo  Mo31  1  1.73392572  8.11722810  1.80705551  1
  Mo  Mo32  1  0.13621801  9.66058940  0.16507871  1
  Mo  Mo33  1  1.64502809  11.30110956  1.67332679  1
  Mo  Mo34  1  3.32533523  9.74257619  0.25869974  1
  Mo  Mo35  1  3.35849932  6.46064222  0.17876734  1
  Mo  Mo36  1  3.27969986  6.53421884  3.27395075  1
  Mo  Mo37  1  0.13080651  6.44206438  3.37927155  1
  Mo  Mo38  1  3.34004062  9.67639695  3.26517319  1
  Mo  Mo39  1  0.11882673  9.67323941  3.35518291  1
  Mo  Mo40  1  0.06298853  6.37159566  0.06225435  1
  Mo  Mo41  1  0.12620425  6.50621802  6.51582965  1
  Mo  Mo42  1  3.25880847  6.51609774  6.44831988  1
  Mo  Mo43  1  3.33843206  9.68947393  6.45398955  1
  Mo  Mo44  1  1.73983369  8.02870779  4.93964186  1
  Mo  Mo45  1  1.73060931  11.21234101  4.85765507  1
  Mo  Mo46  1  0.08355285  9.63627238  6.54341343  1
  Mo  Mo47  1  1.71990545  8.21165638  11.16299206  1
  Mo  Mo48  1  1.76423015  11.24977473  11.18801406  1
  Mo  Mo49  1  3.45292760  9.61689025  9.70284879  1
  Mo  Mo50  1  1.72351974  11.23905101  8.11021797  1
  Mo  Mo51  1  0.18265469  9.73864416  9.71938118  1
  Mo  Mo52  1  0.09496248  6.44125017  9.64777059  1
  Mo  Mo53  1  1.69403945  8.13356191  8.11690043  1
  Mo  Mo54  1  3.29344210  6.52312773  9.51546176  1
  Mo  Mo55  1  1.95202428  8.23592376  14.74759300  1
  Mo  Mo56  1  0.12494520  9.62529050  12.88375144  1
  Mo  Mo57  1  1.63240787  11.19814202  14.43640662  1
  Mo  Mo58  1  3.25409202  9.66113551  12.84383538  1
  Mo  Mo59  1  0.68148228  6.97423875  13.32024643  1
  Mo  Mo60  1  3.37187417  6.58851262  12.84979300  1
  Mo  Mo61  1  8.07396585  1.65107508  1.71077043  1
  Mo  Mo62  1  6.64246880  0.21610275  0.06421183  1
  Mo  Mo63  1  8.07529638  4.92958341  1.61019587  1
  Mo  Mo64  1  6.53093221  3.22820616  3.31267528  1
  Mo  Mo65  1  4.91507660  4.76187639  1.63808747  1
  Mo  Mo66  1  4.97271658  1.65619863  1.73950602  1
  Mo  Mo67  1  6.49797664  0.15611349  3.40627943  1
  Mo  Mo68  1  6.49795679  3.20187347  0.18856564  1
  Mo  Mo69  1  8.06193145  1.83723086  4.91937602  1
  Mo  Mo70  1  6.40873149  3.33493693  6.44773404  1
  Mo  Mo71  1  8.06699543  4.96397874  4.82271363  1
  Mo  Mo72  1  4.86244103  4.90041093  4.90485928  1
  Mo  Mo73  1  4.95226208  1.72075938  4.89766049  1
  Mo  Mo74  1  6.46444517  0.16974254  6.48607133  1
  Mo  Mo75  1  6.52855910  0.03653183  9.71809037  1
  Mo  Mo76  1  4.90890054  4.97198181  11.38054450  1
  Mo  Mo77  1  7.94879624  1.63555548  8.03417887  1
  Mo  Mo78  1  8.12888518  1.69108050  11.22723507  1
  Mo  Mo79  1  6.27566804  2.96036147  9.42653435  1
  Mo  Mo80  1  7.47476824  4.51008749  10.66682157  1
  Mo  Mo81  1  4.98131541  1.68378241  11.30746435  1
  Mo  Mo82  1  8.02407077  4.89336108  8.01624643  1
  Mo  Mo83  1  4.82623855  4.98975538  8.08950531  1
  Mo  Mo84  1  8.91073350  5.72008021  12.02843572  1
  Mo  Mo85  1  6.53565859  0.05346805  12.86200612  1
  Mo  Mo86  1  8.12675036  1.67156929  14.46559896  1
  Mo  Mo87  1  4.85662242  4.86628369  14.40661852  1
  Mo  Mo88  1  4.88501048  1.71869407  14.38656120  1
  Mo  Mo89  1  8.10534265  4.80977566  14.44037837  1
  Mo  Mo90  1  6.55753299  3.35086363  12.86994962  1
  Mo  Mo91  1  4.89349016  8.05235954  1.88054276  1
  Mo  Mo92  1  6.44091257  6.35251141  0.10137388  1
  Mo  Mo93  1  8.12131900  8.01310875  1.73337960  1
  Mo  Mo94  1  6.50122355  9.77623674  0.01836218  1
  Mo  Mo95  1  8.10277094  11.32722380  1.79944962  1
  Mo  Mo96  1  6.53260035  9.66775840  3.27820052  1
  Mo  Mo97  1  5.02302869  11.38272896  1.73094691  1
  Mo  Mo98  1  6.59130277  6.57193057  3.23268430  1
  Mo  Mo99  1  8.09273235  11.21105020  4.93876807  1
  Mo  Mo100  1  4.83426148  11.34152208  4.90371741  1
  Mo  Mo101  1  6.53149819  9.67825374  6.46534874  1
  Mo  Mo102  1  4.83973256  8.14885313  4.86524111  1
  Mo  Mo103  1  8.11204497  8.11771464  4.84174822  1
  Mo  Mo104  1  6.58835375  6.39608148  6.49064877  1
  Mo  Mo105  1  8.16330036  8.16922820  11.30557777  1
  Mo  Mo106  1  6.55812875  9.70333533  9.59140157  1
  Mo  Mo107  1  8.18450949  11.29783287  11.30230108  1
  Mo  Mo108  1  7.97171322  11.25682458  8.03314622  1
  Mo  Mo109  1  4.98921919  8.12701846  11.17679388  1
  Mo  Mo110  1  6.42103398  6.55885360  9.57230739  1
  Mo  Mo111  1  4.97851533  11.21412830  11.26427161  1
  Mo  Mo112  1  4.89978538  11.25136343  8.00025022  1
  Mo  Mo113  1  4.94264053  8.17030057  8.01183779  1
  Mo  Mo114  1  8.14200187  8.02320692  7.98924848  1
  Mo  Mo115  1  6.42673343  6.55215127  12.93637708  1
  Mo  Mo116  1  4.92708121  8.20573848  14.47254952  1
  Mo  Mo117  1  8.09339762  11.28909502  14.43720097  1
  Mo  Mo118  1  6.53606570  9.74418474  12.80064263  1
  Mo  Mo119  1  7.99277341  7.99136344  14.49677718  1
  Mo  Mo120  1  4.90271454  11.28681127  14.47989725  1
