# generated using pymatgen
data_Mo
_symmetry_space_group_name_H-M   'P 1'
_cell_length_a   9.53593048
_cell_length_b   12.72586999
_cell_length_c   15.95110009
_cell_angle_alpha   90.00000000
_cell_angle_beta   90.00000000
_cell_angle_gamma   90.00000000
_symmetry_Int_Tables_number   1
_chemical_formula_structural   Mo
_chemical_formula_sum   Mo121
_cell_volume   1935.71403214
_cell_formula_units_Z   121
loop_
 _symmetry_equiv_pos_site_id
 _symmetry_equiv_pos_as_xyz
  1  'x, y, z'
loop_
 _atom_site_type_symbol
 _atom_site_label
 _atom_site_symmetry_multiplicity
 _atom_site_fract_x
 _atom_site_fract_y
 _atom_site_fract_z
 _atom_site_occupancy
  Mo  Mo0  1  1.68126035  1.74295151  1.57523457  1
  Mo  Mo1  1  0.23492585  3.33766750  3.32623880  1
  Mo  Mo2  1  3.39989485  3.37787151  0.04168249  1
  Mo  Mo3  1  1.79772191  4.92091507  1.77647306  1
  Mo  Mo4  1  3.25576015  3.37646154  3.34691174  1
  Mo  Mo5  1  0.07911482  3.29265768  0.12394532  1
  Mo  Mo6  1  3.37145714  0.03837969  3.26488524  1
  Mo  Mo7  1  0.15286956  0.17530993  3.22100736  1
  Mo  Mo8  1  3.28423758  0.21129098  0.16098384  1
  Mo  Mo9  1  0.14115291  0.16880719  0.05715791  1
  Mo  Mo10  1  3.17470672  -0.03703138  6.38311372  1
  Mo  Mo11  1  0.22411972  3.32139327  6.44943197  1
  Mo  Mo12  1  3.30430483  3.15977296  6.46819847  1
  Mo  Mo13  1  1.67201611  1.65902850  4.88769141  1
  Mo  Mo14  1  1.77352404  4.84450859  4.90511745  1
  Mo  Mo15  1  0.16477289  0.03564276  6.47190213  1
  Mo  Mo16  1  1.64478979  1.66508542  11.34767829  1
  Mo  Mo17  1  1.71880329  4.92169949  11.25573235  1
  Mo  Mo18  1  3.21289507  3.27529122  9.82545662  1
  Mo  Mo19  1  0.13866262  0.14902789  9.71840811  1
  Mo  Mo20  1  1.78641236  4.95104077  8.10643488  1
  Mo  Mo21  1  3.24942521  0.05836105  9.71157670  1
  Mo  Mo22  1  0.19110061  3.30687653  9.64005547  1
  Mo  Mo23  1  1.65114458  1.58136099  8.11099246  1
  Mo  Mo24  1  1.80934919  1.59189605  14.44693175  1
  Mo  Mo25  1  0.27403664  3.27119039  12.97331433  1
  Mo  Mo26  1  1.82777810  4.93927447  14.49836588  1
  Mo  Mo27  1  0.08256428  0.13094651  12.89199281  1
  Mo  Mo28  1  3.30894184  3.37247987  12.95573935  1
  Mo  Mo29  1  4.54483035  1.40975173  7.79667833  1
  Mo  Mo30  1  3.31485975  0.11741576  12.92327032  1
  Mo  Mo31  1  1.91081740  8.12278854  1.71963736  1
  Mo  Mo32  1  0.27173303  9.73573485  0.16976140  1
  Mo  Mo33  1  1.79613321  11.34380584  1.79388917  1
  Mo  Mo34  1  3.37537924  9.84596076  0.00535555  1
  Mo  Mo35  1  3.49256563  6.61412046  0.21172986  1
  Mo  Mo36  1  3.30161397  6.50962379  3.23529572  1
  Mo  Mo37  1  0.11010874  6.51078553  3.13897093  1
  Mo  Mo38  1  3.32630831  9.72926090  3.27223297  1
  Mo  Mo39  1  0.05140900  9.67063792  3.27625437  1
  Mo  Mo40  1  0.18470411  6.57276464  0.08673441  1
  Mo  Mo41  1  0.20103593  6.50725067  6.46095996  1
  Mo  Mo42  1  3.35784398  6.46878430  6.51695167  1
  Mo  Mo43  1  3.20302528  9.58265379  6.37494185  1
  Mo  Mo44  1  1.72812697  8.01189737  4.93900638  1
  Mo  Mo45  1  1.59635433  11.28681127  4.85478548  1
  Mo  Mo46  1  0.06794944  9.67238549  6.47752215  1
  Mo  Mo47  1  1.73099656  8.07943693  11.19556038  1
  Mo  Mo48  1  1.67499492  11.19417027  11.30249967  1
  Mo  Mo49  1  3.34926500  9.68041835  9.63371060  1
  Mo  Mo50  1  1.75224540  11.34489807  8.09790555  1
  Mo  Mo51  1  0.12731038  9.72447495  9.69667272  1
  Mo  Mo52  1  0.13669264  6.51070609  9.58492762  1
  Mo  Mo53  1  1.66362580  8.08360726  8.04846723  1
  Mo  Mo54  1  3.22161306  6.59725046  9.68980160  1
  Mo  Mo55  1  1.96366149  8.10047726  14.52735963  1
  Mo  Mo56  1  0.23474613  9.62547916  12.95285983  1
  Mo  Mo57  1  1.68577822  11.21134808  14.44206636  1
  Mo  Mo58  1  3.33802496  9.71510163  12.85177887  1
  Mo  Mo59  1  0.35881159  6.70909485  13.14936202  1
  Mo  Mo60  1  3.41308105  6.47258725  12.89715608  1
  Mo  Mo61  1  8.07319135  1.73430304  1.64439261  1
  Mo  Mo62  1  6.48847424  0.23234323  0.10957951  1
  Mo  Mo63  1  8.10774555  4.98864329  1.64844380  1
  Mo  Mo64  1  6.47433482  3.35678154  3.29431588  1
  Mo  Mo65  1  5.01390360  4.84698100  1.70068220  1
  Mo  Mo66  1  4.96486245  1.76138042  1.75676326  1
  Mo  Mo67  1  6.55634147  0.23646094  3.25511474  1
  Mo  Mo68  1  6.54128854  3.31020287  0.11811181  1
  Mo  Mo69  1  8.12125942  1.71414642  4.89334122  1
  Mo  Mo70  1  6.62542008  3.39709477  6.41960415  1
  Mo  Mo71  1  8.13818899  4.80261659  4.87146682  1
  Mo  Mo72  1  4.91155168  4.98511836  4.92587976  1
  Mo  Mo73  1  4.88512963  1.68042629  4.84571004  1
  Mo  Mo74  1  6.51935457  0.17379769  6.51550198  1
  Mo  Mo75  1  6.50220655  0.08264590  9.66368736  1
  Mo  Mo76  1  4.86702839  4.93152957  11.20886574  1
  Mo  Mo77  1  8.18769682  1.76095346  8.04660051  1
  Mo  Mo78  1  8.01487618  1.65784691  11.27400239  1
  Mo  Mo79  1  5.92665077  2.84943058  9.09542966  1
  Mo  Mo80  1  7.33605497  3.99944991  10.49881667  1
  Mo  Mo81  1  4.86346375  1.72058065  11.31004599  1
  Mo  Mo82  1  8.06959692  4.90382663  8.15776971  1
  Mo  Mo83  1  4.84171844  4.91108500  8.04804027  1
  Mo  Mo84  1  8.54391288  5.47975973  11.74296641  1
  Mo  Mo85  1  6.48064990  0.11094380  12.81196211  1
  Mo  Mo86  1  8.06150449  1.74322954  14.43511581  1
  Mo  Mo87  1  4.98795816  5.00586081  14.56111948  1
  Mo  Mo88  1  4.96068219  1.76638482  14.60550375  1
  Mo  Mo89  1  8.21561820  5.02279038  14.49508919  1
  Mo  Mo90  1  6.53202445  3.36904430  12.99307377  1
  Mo  Mo91  1  4.95689910  8.10193687  1.74647644  1
  Mo  Mo92  1  6.56239838  6.53978921  0.18965290  1
  Mo  Mo93  1  8.01098387  8.09090535  1.60875611  1
  Mo  Mo94  1  6.55697695  9.77712046  0.13870333  1
  Mo  Mo95  1  8.09037909  11.27291016  1.75006094  1
  Mo  Mo96  1  6.49861212  9.68377447  3.32025139  1
  Mo  Mo97  1  4.97405705  11.32136547  1.68781374  1
  Mo  Mo98  1  6.50344773  6.61418996  3.34527340  1
  Mo  Mo99  1  8.00434112  11.25434224  4.73708276  1
  Mo  Mo100  1  4.89183195  11.19188652  4.90595151  1
  Mo  Mo101  1  6.59579084  9.73449368  6.47755194  1
  Mo  Mo102  1  4.82225688  8.12410915  4.90818562  1
  Mo  Mo103  1  8.07560419  8.01921531  4.83824316  1
  Mo  Mo104  1  6.60879831  6.53266985  6.50388462  1
  Mo  Mo105  1  8.15120639  8.11644368  11.36485610  1
  Mo  Mo106  1  6.47179290  9.58884972  9.63744404  1
  Mo  Mo107  1  8.09612819  11.28105224  11.23249763  1
  Mo  Mo108  1  8.08286256  11.24063971  8.06146477  1
  Mo  Mo109  1  4.96913208  8.11765506  11.22286614  1
  Mo  Mo110  1  6.44871705  6.47418588  9.71866627  1
  Mo  Mo111  1  4.88851555  11.14988529  11.18543243  1
  Mo  Mo112  1  4.87011643  11.12972868  8.01832167  1
  Mo  Mo113  1  4.87358178  8.13568679  8.04352240  1
  Mo  Mo114  1  8.10799379  8.05525892  8.01784506  1
  Mo  Mo115  1  6.57814636  6.64339223  12.99357024  1
  Mo  Mo116  1  5.06072057  8.19481618  14.47592551  1
  Mo  Mo117  1  8.08988262  11.32086900  14.52954409  1
  Mo  Mo118  1  6.54910296  9.77207634  12.89705679  1
  Mo  Mo119  1  8.20461646  8.11557982  14.66269691  1
  Mo  Mo120  1  4.97393789  11.23835596  14.44435012  1
