# generated using pymatgen
data_Mo
_symmetry_space_group_name_H-M   'P 1'
_cell_length_a   9.49060497
_cell_length_b   12.73366749
_cell_length_c   15.87463911
_cell_angle_alpha   90.00000000
_cell_angle_beta   90.00000000
_cell_angle_gamma   90.00000000
_symmetry_Int_Tables_number   1
_chemical_formula_structural   Mo
_chemical_formula_sum   Mo121
_cell_volume   1918.45343745
_cell_formula_units_Z   121
loop_
 _symmetry_equiv_pos_site_id
 _symmetry_equiv_pos_as_xyz
  1  'x, y, z'
loop_
 _atom_site_type_symbol
 _atom_site_label
 _atom_site_symmetry_multiplicity
 _atom_site_fract_x
 _atom_site_fract_y
 _atom_site_fract_z
 _atom_site_occupancy
  Mo  Mo0  1  1.70901294  1.72667728  1.86688988  1
  Mo  Mo1  1  0.20989888  3.30771060  3.30756166  1
  Mo  Mo2  1  3.23355809  3.27638345  0.15364008  1
  Mo  Mo3  1  1.68512288  4.90954595  1.85662291  1
  Mo  Mo4  1  3.28001760  3.34881818  3.42000182  1
  Mo  Mo5  1  0.10633161  3.25447926  0.20558060  1
  Mo  Mo6  1  3.38500080  0.06767579  3.34198678  1
  Mo  Mo7  1  0.20000427  0.07927945  3.31906980  1
  Mo  Mo8  1  3.28587592  0.09336852  0.13260968  1
  Mo  Mo9  1  0.20829926  0.12147687  0.18360393  1
  Mo  Mo10  1  3.30670774  -0.01609928  6.30515826  1
  Mo  Mo11  1  0.29270484  3.34770609  6.43681174  1
  Mo  Mo12  1  3.31622007  3.24813440  6.45860670  1
  Mo  Mo13  1  1.71780043  1.75074607  4.94468598  1
  Mo  Mo14  1  1.76355495  4.98594250  4.92035903  1
  Mo  Mo15  1  0.20242604  0.15488522  6.49551416  1
  Mo  Mo16  1  1.72576378  1.73527611  11.29286818  1
  Mo  Mo17  1  1.75257307  4.94227314  11.25920763  1
  Mo  Mo18  1  3.30843544  3.42089546  9.61339512  1
  Mo  Mo19  1  0.24295971  0.13013826  9.72467354  1
  Mo  Mo20  1  1.79479274  4.99377677  8.03274904  1
  Mo  Mo21  1  3.36345407  0.14233550  9.63577591  1
  Mo  Mo22  1  0.21013123  3.43279084  9.76182923  1
  Mo  Mo23  1  1.80615194  1.77798232  8.18134202  1
  Mo  Mo24  1  1.67635525  1.76630539  14.48545770  1
  Mo  Mo25  1  0.18933516  3.18759504  12.90222006  1
  Mo  Mo26  1  1.80661862  4.93903617  14.40393759  1
  Mo  Mo27  1  0.09372469  0.17597917  12.97212281  1
  Mo  Mo28  1  3.37214227  3.28616387  12.80312497  1
  Mo  Mo29  1  4.72068938  1.45734319  7.77519118  1
  Mo  Mo30  1  3.29481235  0.16066908  12.91353954  1
  Mo  Mo31  1  1.70667954  8.15907045  1.78022636  1
  Mo  Mo32  1  0.18088031  9.77483670  0.05544380  1
  Mo  Mo33  1  1.67531266  11.30031521  1.72419494  1
  Mo  Mo34  1  3.38110849  9.71181501  0.18464255  1
  Mo  Mo35  1  3.31226818  6.44986886  0.19853671  1
  Mo  Mo36  1  3.23583191  6.53117052  3.30258705  1
  Mo  Mo37  1  0.13960790  6.48712385  3.35342541  1
  Mo  Mo38  1  3.29195270  9.75738087  3.26214473  1
  Mo  Mo39  1  0.13134468  9.61804206  3.29911177  1
  Mo  Mo40  1  0.14858802  6.46903254  0.17877528  1
  Mo  Mo41  1  0.15617604  6.45702793  6.41777714  1
  Mo  Mo42  1  3.32679485  6.47767109  6.48619049  1
  Mo  Mo43  1  3.38272697  9.68555183  6.46050321  1
  Mo  Mo44  1  1.74301109  8.13234060  4.95679981  1
  Mo  Mo45  1  1.61912237  11.19238299  4.89543631  1
  Mo  Mo46  1  0.12839169  9.72436573  6.44207431  1
  Mo  Mo47  1  1.75464831  8.14614242  11.20846856  1
  Mo  Mo48  1  1.63762078  11.31719513  11.29535053  1
  Mo  Mo49  1  3.38577529  9.76200796  9.79493374  1
  Mo  Mo50  1  1.83559251  11.36366457  8.04205286  1
  Mo  Mo51  1  0.22941903  9.69670251  9.51858951  1
  Mo  Mo52  1  0.24290311  6.62382145  9.61349441  1
  Mo  Mo53  1  1.77290842  8.16560398  8.00822350  1
  Mo  Mo54  1  3.34384357  6.48255634  9.69012927  1
  Mo  Mo55  1  1.84762691  8.12114027  14.62734836  1
  Mo  Mo56  1  0.21800820  9.69728834  12.80471367  1
  Mo  Mo57  1  1.76872815  11.27559108  14.45666253  1
  Mo  Mo58  1  3.29296549  9.64395771  12.84721136  1
  Mo  Mo59  1  0.42794581  6.73265724  13.17696566  1
  Mo  Mo60  1  3.37035498  6.49383610  12.95395206  1
  Mo  Mo61  1  8.08025113  1.71635074  1.67265159  1
  Mo  Mo62  1  6.39596232  0.08853799  0.05203147  1
  Mo  Mo63  1  8.05134675  4.87834787  1.77723762  1
  Mo  Mo64  1  6.49704328  3.20447497  3.21093899  1
  Mo  Mo65  1  4.83582039  4.95693882  1.64131451  1
  Mo  Mo66  1  4.89211991  1.74646651  1.83029023  1
  Mo  Mo67  1  6.55911176  0.11635928  3.27275923  1
  Mo  Mo68  1  6.43455777  3.17582874  0.14767154  1
  Mo  Mo69  1  8.12609502  1.72028277  4.81080832  1
  Mo  Mo70  1  6.53753524  3.45200417  6.36249043  1
  Mo  Mo71  1  8.09790555  4.89997404  4.99266468  1
  Mo  Mo72  1  4.93662333  4.84710015  4.89038227  1
  Mo  Mo73  1  4.92680319  1.65443120  4.86507231  1
  Mo  Mo74  1  6.55561662  0.06667977  6.31589190  1
  Mo  Mo75  1  6.55431588  0.15580766  9.69650392  1
  Mo  Mo76  1  4.71180259  4.90711325  11.31550714  1
  Mo  Mo77  1  8.29805181  1.68630447  7.89000445  1
  Mo  Mo78  1  8.00381486  1.63839528  11.15683585  1
  Mo  Mo79  1  6.28566691  2.77076020  8.95869234  1
  Mo  Mo80  1  7.15574759  4.11120494  10.60655031  1
  Mo  Mo81  1  4.96781147  1.73205900  11.21720640  1
  Mo  Mo82  1  8.20383204  4.89664770  8.09520476  1
  Mo  Mo83  1  4.97687699  4.96185385  8.07293319  1
  Mo  Mo84  1  8.63599783  5.47452695  11.73442715  1
  Mo  Mo85  1  6.46708638  0.12185121  12.84631772  1
  Mo  Mo86  1  7.98877187  1.70684833  14.36690105  1
  Mo  Mo87  1  4.90183083  4.90498837  14.50948677  1
  Mo  Mo88  1  4.88188273  1.65707242  14.45934346  1
  Mo  Mo89  1  8.16317128  5.04114978  14.49469201  1
  Mo  Mo90  1  6.44562902  3.32601043  12.99505965  1
  Mo  Mo91  1  4.92541307  8.10256242  1.82437233  1
  Mo  Mo92  1  6.45969893  6.53775369  0.22690392  1
  Mo  Mo93  1  8.10885764  8.09586010  1.68082346  1
  Mo  Mo94  1  6.48109672  9.70174663  0.18019717  1
  Mo  Mo95  1  8.07809646  11.15961607  1.68635412  1
  Mo  Mo96  1  6.51518424  9.55711546  3.28661070  1
  Mo  Mo97  1  4.92244419  11.39156610  1.69514161  1
  Mo  Mo98  1  6.44160763  6.46345223  3.37209262  1
  Mo  Mo99  1  8.06968629  11.20409964  4.88385867  1
  Mo  Mo100  1  4.97089951  11.26377514  4.81394600  1
  Mo  Mo101  1  6.52658315  9.63718588  6.56601267  1
  Mo  Mo102  1  4.85139957  8.02659283  4.87104979  1
  Mo  Mo103  1  8.07718296  8.03493350  4.83551258  1
  Mo  Mo104  1  6.62897479  6.50123348  6.46072166  1
  Mo  Mo105  1  8.09410260  8.19950284  11.24024254  1
  Mo  Mo106  1  6.52687110  9.80741496  9.79791255  1
  Mo  Mo107  1  8.06405634  11.36574974  11.25096625  1
  Mo  Mo108  1  8.10943355  11.18702113  7.97900137  1
  Mo  Mo109  1  4.91196871  8.05709585  11.29852792  1
  Mo  Mo110  1  6.50950464  6.52883712  9.70803192  1
  Mo  Mo111  1  4.90460112  11.30696789  11.28085365  1
  Mo  Mo112  1  5.02257194  11.34996205  8.12545954  1
  Mo  Mo113  1  4.99250581  8.14005571  8.11433865  1
  Mo  Mo114  1  8.13852659  8.13407824  8.13003698  1
  Mo  Mo115  1  6.44390131  6.50315977  12.85535345  1
  Mo  Mo116  1  4.97465281  7.98017304  14.45616606  1
  Mo  Mo117  1  8.03881588  11.37647346  14.39807927  1
  Mo  Mo118  1  6.51997019  9.62170600  12.80679884  1
  Mo  Mo119  1  8.12440703  8.22095027  14.53927487  1
  Mo  Mo120  1  4.86413895  11.19546109  14.45646395  1
