# generated using pymatgen
data_Mo
_symmetry_space_group_name_H-M   'P 1'
_cell_length_a   9.55009831
_cell_length_b   12.72101156
_cell_length_c   15.83925372
_cell_angle_alpha   90.00000000
_cell_angle_beta   90.00000000
_cell_angle_gamma   90.00000000
_symmetry_Int_Tables_number   1
_chemical_formula_structural   Mo
_chemical_formula_sum   Mo121
_cell_volume   1924.26200722
_cell_formula_units_Z   121
loop_
 _symmetry_equiv_pos_site_id
 _symmetry_equiv_pos_as_xyz
  1  'x, y, z'
loop_
 _atom_site_type_symbol
 _atom_site_label
 _atom_site_symmetry_multiplicity
 _atom_site_fract_x
 _atom_site_fract_y
 _atom_site_fract_z
 _atom_site_occupancy
  Mo  Mo0  1  1.66469817  1.63603209  1.78643221  1
  Mo  Mo1  1  0.12793891  3.32188974  3.35301830  1
  Mo  Mo2  1  3.30123665  3.25804391  0.17576470  1
  Mo  Mo3  1  1.74926659  4.96571638  1.73870175  1
  Mo  Mo4  1  3.27808137  3.24158101  3.32407420  1
  Mo  Mo5  1  0.08798403  3.28495249  0.19130614  1
  Mo  Mo6  1  3.44741680  -0.00484818  3.27650260  1
  Mo  Mo7  1  0.19302392  0.23799403  3.33381491  1
  Mo  Mo8  1  3.36874642  0.08516538  0.13385284  1
  Mo  Mo9  1  0.13950662  0.02103090  0.17047532  1
  Mo  Mo10  1  3.36120010  0.01023102  6.48367836  1
  Mo  Mo11  1  0.18394650  3.33121341  6.39403603  1
  Mo  Mo12  1  3.23144313  3.23222755  6.44624464  1
  Mo  Mo13  1  1.81736219  1.46980455  4.86409923  1
  Mo  Mo14  1  1.63959673  4.85948208  4.87841738  1
  Mo  Mo15  1  0.07145838  0.11429695  6.49398504  1
  Mo  Mo16  1  1.71273645  1.68570871  11.22624213  1
  Mo  Mo17  1  1.91742043  4.94995847  11.27410168  1
  Mo  Mo18  1  3.34239388  3.27765441  9.51046729  1
  Mo  Mo19  1  0.07915622  0.10725306  9.64668828  1
  Mo  Mo20  1  1.86111099  4.75385346  7.92205645  1
  Mo  Mo21  1  3.23361766  0.15465486  9.69448826  1
  Mo  Mo22  1  0.19679510  3.22960620  9.81194275  1
  Mo  Mo23  1  1.65385530  1.53870443  8.02942270  1
  Mo  Mo24  1  1.67759642  1.76785437  14.49042238  1
  Mo  Mo25  1  0.13872716  3.29323358  12.89219140  1
  Mo  Mo26  1  1.74656580  4.88575518  14.54195580  1
  Mo  Mo27  1  0.16493772  0.16057574  12.82298371  1
  Mo  Mo28  1  3.25553178  3.26227382  12.87749593  1
  Mo  Mo29  1  4.89359938  1.63585336  7.83317868  1
  Mo  Mo30  1  3.24799539  0.17692743  12.81950843  1
  Mo  Mo31  1  1.85246251  8.13892377  1.76228399  1
  Mo  Mo32  1  0.23320311  9.70794255  0.23788878  1
  Mo  Mo33  1  1.66909688  11.27221510  1.77920364  1
  Mo  Mo34  1  3.32512671  9.78444833  0.14915101  1
  Mo  Mo35  1  3.25969218  6.55306477  0.06277753  1
  Mo  Mo36  1  3.34153996  6.46418701  3.28864622  1
  Mo  Mo37  1  0.15485345  6.53104144  3.37693815  1
  Mo  Mo38  1  3.33533410  9.70931280  3.40827523  1
  Mo  Mo39  1  0.16506481  9.66652716  3.37254937  1
  Mo  Mo40  1  0.13076183  6.56268633  0.29907751  1
  Mo  Mo41  1  0.05363219  6.50003202  6.50478819  1
  Mo  Mo42  1  3.31169228  6.46903254  6.49640780  1
  Mo  Mo43  1  3.46899332  9.65021321  6.53982893  1
  Mo  Mo44  1  1.69634306  8.15981516  4.97069099  1
  Mo  Mo45  1  1.66106402  11.25156202  4.92020016  1
  Mo  Mo46  1  0.07739406  9.65879218  6.45682935  1
  Mo  Mo47  1  1.74216709  8.12529075  11.27847060  1
  Mo  Mo48  1  1.70844696  11.22455414  11.20787280  1
  Mo  Mo49  1  3.36657189  9.64445418  9.61025744  1
  Mo  Mo50  1  1.74868076  11.26188856  7.95818942  1
  Mo  Mo51  1  0.04064050  9.69011934  9.56783918  1
  Mo  Mo52  1  0.26803533  6.63794101  9.38327210  1
  Mo  Mo53  1  1.73148310  8.10918531  7.95718655  1
  Mo  Mo54  1  3.33275247  6.54057363  9.66831445  1
  Mo  Mo55  1  1.88053283  8.22781146  14.53907628  1
  Mo  Mo56  1  0.12462250  9.69589823  12.79796170  1
  Mo  Mo57  1  1.85610659  11.32434428  14.37027704  1
  Mo  Mo58  1  3.38314401  9.85202760  12.83479965  1
  Mo  Mo59  1  0.47659176  6.85135290  13.22532168  1
  Mo  Mo60  1  3.44300816  6.52921443  12.84959441  1
  Mo  Mo61  1  8.06523793  1.75572068  1.79982693  1
  Mo  Mo62  1  6.54078215  0.24827192  0.24819546  1
  Mo  Mo63  1  8.13495202  4.81053029  1.79251892  1
  Mo  Mo64  1  6.45458531  3.34119243  3.26365400  1
  Mo  Mo65  1  4.82044973  4.90398550  1.60827950  1
  Mo  Mo66  1  4.85224357  1.79284659  1.78428747  1
  Mo  Mo67  1  6.49446165  0.10415112  3.39073997  1
  Mo  Mo68  1  6.53289823  3.28817954  0.12758443  1
  Mo  Mo69  1  7.97262672  1.65626814  4.83373523  1
  Mo  Mo70  1  6.58133368  3.29235980  6.34563036  1
  Mo  Mo71  1  8.06534715  4.93224448  4.86775324  1
  Mo  Mo72  1  4.88219054  4.93287003  4.95059395  1
  Mo  Mo73  1  4.90725226  1.73875139  4.86004805  1
  Mo  Mo74  1  6.39028272  0.09856347  6.37348224  1
  Mo  Mo75  1  6.48375779  0.09623712  9.57313153  1
  Mo  Mo76  1  4.80235842  4.80989481  11.14740295  1
  Mo  Mo77  1  8.08415338  1.62654954  7.96761239  1
  Mo  Mo78  1  8.04198335  1.74601969  11.32057112  1
  Mo  Mo79  1  6.33386406  3.11205242  9.20042279  1
  Mo  Mo80  1  7.44349073  4.36025334  10.78100929  1
  Mo  Mo81  1  4.82285264  1.72278497  11.09676318  1
  Mo  Mo82  1  8.08198877  4.89494978  7.99919771  1
  Mo  Mo83  1  4.85716853  4.86713762  7.96811879  1
  Mo  Mo84  1  9.11021449  5.61871130  11.55391125  1
  Mo  Mo85  1  6.51836164  0.08962416  12.80004687  1
  Mo  Mo86  1  8.12865680  1.69850767  14.45239291  1
  Mo  Mo87  1  4.88739353  4.90821541  14.44931480  1
  Mo  Mo88  1  4.95677002  1.68156817  14.40403689  1
  Mo  Mo89  1  8.09447992  4.94865772  14.48903227  1
  Mo  Mo90  1  6.34946310  3.26416040  12.89735467  1
  Mo  Mo91  1  4.81225800  8.16216842  1.70412769  1
  Mo  Mo92  1  6.46433595  6.61861846  0.31384248  1
  Mo  Mo93  1  8.06094844  8.10042761  1.84091465  1
  Mo  Mo94  1  6.48351949  9.65456227  0.26831335  1
  Mo  Mo95  1  8.08277319  11.27330733  1.80270645  1
  Mo  Mo96  1  6.54047434  9.61040638  3.38145601  1
  Mo  Mo97  1  4.90651749  11.28045647  1.70753346  1
  Mo  Mo98  1  6.40349871  6.56195156  3.31328098  1
  Mo  Mo99  1  8.16695437  11.24371782  4.97541737  1
  Mo  Mo100  1  4.93522329  11.19287945  4.86193463  1
  Mo  Mo101  1  6.52222416  9.60908577  6.54882493  1
  Mo  Mo102  1  4.86094169  8.12367226  4.92821316  1
  Mo  Mo103  1  8.09026987  8.09489695  5.02351523  1
  Mo  Mo104  1  6.49379638  6.51265225  6.50547332  1
  Mo  Mo105  1  8.10091415  8.16009318  11.23567503  1
  Mo  Mo106  1  6.42356596  9.73888246  9.76638681  1
  Mo  Mo107  1  8.11056549  11.32116688  11.26427161  1
  Mo  Mo108  1  7.93606679  11.29922298  7.97468210  1
  Mo  Mo109  1  4.96820865  7.99583165  11.35820342  1
  Mo  Mo110  1  6.47126665  6.41065779  9.59184839  1
  Mo  Mo111  1  4.87041431  11.35611825  11.24570369  1
  Mo  Mo112  1  4.85385212  11.24341993  8.11914447  1
  Mo  Mo113  1  4.90026199  8.12941143  8.11591742  1
  Mo  Mo114  1  8.06116689  8.21711754  8.05768168  1
  Mo  Mo115  1  6.62702863  6.39858368  12.88841824  1
  Mo  Mo116  1  5.03784330  8.10464759  14.55248093  1
  Mo  Mo117  1  8.13564708  11.25523588  14.46331521  1
  Mo  Mo118  1  6.48820615  9.70797234  12.86855950  1
  Mo  Mo119  1  8.12966960  8.16053007  14.61960345  1
  Mo  Mo120  1  5.11467675  11.38193461  14.42508714  1
