# generated using pymatgen
data_Mo
_symmetry_space_group_name_H-M   'P 1'
_cell_length_a   9.51521081
_cell_length_b   12.67661193
_cell_length_c   15.98033821
_cell_angle_alpha   90.00000000
_cell_angle_beta   90.00000000
_cell_angle_gamma   90.00000000
_symmetry_Int_Tables_number   1
_chemical_formula_structural   Mo
_chemical_formula_sum   Mo121
_cell_volume   1927.55853994
_cell_formula_units_Z   121
loop_
 _symmetry_equiv_pos_site_id
 _symmetry_equiv_pos_as_xyz
  1  'x, y, z'
loop_
 _atom_site_type_symbol
 _atom_site_label
 _atom_site_symmetry_multiplicity
 _atom_site_fract_x
 _atom_site_fract_y
 _atom_site_fract_z
 _atom_site_occupancy
  Mo  Mo0  1  1.73408459  1.81445289  1.68767473  1
  Mo  Mo1  1  0.02173777  3.34266197  3.24382505  1
  Mo  Mo2  1  3.28696815  3.42256359  0.06732280  1
  Mo  Mo3  1  1.63781937  4.84911582  1.76632525  1
  Mo  Mo4  1  3.29442511  3.35671203  3.18171686  1
  Mo  Mo5  1  0.18275994  3.35557015  0.12867567  1
  Mo  Mo6  1  3.18817095  0.25839491  3.34397265  1
  Mo  Mo7  1  0.09188885  0.00048278  3.22154355  1
  Mo  Mo8  1  3.27720758  0.20704717  0.17462977  1
  Mo  Mo9  1  0.19735214  0.25505665  0.13905384  1
  Mo  Mo10  1  3.22098751  0.18755384  6.37511065  1
  Mo  Mo11  1  0.06155334  3.36143841  6.43935366  1
  Mo  Mo12  1  3.34853023  3.35781419  6.34582895  1
  Mo  Mo13  1  1.61354207  1.90737191  4.87887413  1
  Mo  Mo14  1  1.72240765  4.94815133  4.86601560  1
  Mo  Mo15  1  0.21307231  0.10030051  6.40429306  1
  Mo  Mo16  1  1.78460521  1.71037326  11.27231439  1
  Mo  Mo17  1  1.98328192  4.76568927  11.26466878  1
  Mo  Mo18  1  3.33807461  3.30669781  9.66037095  1
  Mo  Mo19  1  0.24470529  0.13710868  9.65318209  1
  Mo  Mo20  1  1.68372284  5.06955770  8.03543990  1
  Mo  Mo21  1  3.37882473  0.07252638  9.64631097  1
  Mo  Mo22  1  0.19444978  3.41060864  9.47697554  1
  Mo  Mo23  1  1.78335411  1.90994362  8.01373430  1
  Mo  Mo24  1  4.71049192  1.65575181  7.95589574  1
  Mo  Mo25  1  1.78108029  1.66918624  14.41873235  1
  Mo  Mo26  1  0.16795624  3.20020534  12.84274315  1
  Mo  Mo27  1  1.81502879  4.87981742  14.48714569  1
  Mo  Mo28  1  0.19361770  0.07095258  12.88434720  1
  Mo  Mo29  1  3.36535058  3.28474397  12.95196619  1
  Mo  Mo30  1  3.40481981  0.08220007  12.91790846  1
  Mo  Mo31  1  1.59642384  8.03475477  1.70782141  1
  Mo  Mo32  1  0.11620339  9.60592823  0.10792925  1
  Mo  Mo33  1  1.80190217  11.22922094  1.70773205  1
  Mo  Mo34  1  3.45917317  9.68119284  0.31288430  1
  Mo  Mo35  1  3.35932345  6.45705772  0.23614518  1
  Mo  Mo36  1  3.25741836  6.49710286  3.28880509  1
  Mo  Mo37  1  0.09297075  6.45649175  3.21050209  1
  Mo  Mo38  1  3.36304697  9.69553084  3.25754744  1
  Mo  Mo39  1  0.14702613  9.65201043  3.24383498  1
  Mo  Mo40  1  0.11802245  6.49078778  0.22766252  1
  Mo  Mo41  1  0.17641706  6.52631506  6.35950169  1
  Mo  Mo42  1  3.29433574  6.50895852  6.39628006  1
  Mo  Mo43  1  3.26245254  9.68460854  6.42499579  1
  Mo  Mo44  1  1.76424008  8.04473379  4.83239476  1
  Mo  Mo45  1  1.78571730  11.20409964  4.89023333  1
  Mo  Mo46  1  0.23755019  9.69746707  6.50008167  1
  Mo  Mo47  1  1.73301222  7.97749211  11.25612952  1
  Mo  Mo48  1  1.78599532  11.28720844  11.35333803  1
  Mo  Mo49  1  3.31451222  9.65481051  9.77540267  1
  Mo  Mo50  1  1.70446529  11.24322135  8.17044951  1
  Mo  Mo51  1  0.12999131  9.63495177  9.79566851  1
  Mo  Mo52  1  0.19329400  6.56705525  9.52183642  1
  Mo  Mo53  1  1.80406677  8.10466745  8.05958812  1
  Mo  Mo54  1  3.36079300  6.48791819  9.60094369  1
  Mo  Mo55  1  1.96084155  8.25729176  14.65276754  1
  Mo  Mo56  1  0.19166857  9.68368511  12.98522957  1
  Mo  Mo57  1  1.63775980  11.25612952  14.54632472  1
  Mo  Mo58  1  3.32209825  9.52225345  12.86816233  1
  Mo  Mo59  1  0.42520232  6.85788643  13.51337263  1
  Mo  Mo60  1  3.33909733  6.46775165  12.88166627  1
  Mo  Mo61  1  8.08322995  1.72299349  1.58112268  1
  Mo  Mo62  1  6.48782883  0.07835939  0.03620228  1
  Mo  Mo63  1  7.94324572  4.99503780  1.69725657  1
  Mo  Mo64  1  6.46087060  3.28350280  3.25440976  1
  Mo  Mo65  1  4.93365445  4.91038994  1.80244828  1
  Mo  Mo66  1  5.01044818  1.69640264  1.62537787  1
  Mo  Mo67  1  6.46177417  0.22384170  3.22115631  1
  Mo  Mo68  1  6.43894655  3.31425405  0.10346997  1
  Mo  Mo69  1  8.13660030  1.80020425  4.87938053  1
  Mo  Mo70  1  6.41084644  3.34494573  6.31624936  1
  Mo  Mo71  1  8.05102901  4.85661249  4.89288447  1
  Mo  Mo72  1  4.83601898  4.87405839  4.72269511  1
  Mo  Mo73  1  4.87105972  1.68671158  4.79420641  1
  Mo  Mo74  1  6.61541127  0.17536752  6.51041814  1
  Mo  Mo75  1  6.42475749  0.21954129  9.76715137  1
  Mo  Mo76  1  4.95566786  4.99306186  11.30498201  1
  Mo  Mo77  1  8.10212553  1.82308151  8.02948228  1
  Mo  Mo78  1  8.16652741  1.59260103  11.16180053  1
  Mo  Mo79  1  6.22379702  3.06686386  9.29578444  1
  Mo  Mo80  1  7.52657968  4.10696510  10.92875828  1
  Mo  Mo81  1  4.98440345  1.67779501  11.38074309  1
  Mo  Mo82  1  8.08907834  4.94095253  7.99569264  1
  Mo  Mo83  1  4.78810978  4.99032135  7.99754943  1
  Mo  Mo84  1  8.98983084  5.68103794  11.78288247  1
  Mo  Mo85  1  6.52419017  0.14790686  12.98185359  1
  Mo  Mo86  1  8.05077084  1.70716607  14.44147060  1
  Mo  Mo87  1  4.94684065  4.85870758  14.41724294  1
  Mo  Mo88  1  4.87170513  1.67837091  14.53520383  1
  Mo  Mo89  1  8.12873624  4.84036804  14.43154123  1
  Mo  Mo90  1  6.54068285  3.10848777  13.04232343  1
  Mo  Mo91  1  5.04317537  8.07473041  1.78064339  1
  Mo  Mo92  1  6.48221874  6.43666280  0.01647709  1
  Mo  Mo93  1  8.04756366  8.11156836  1.65316024  1
  Mo  Mo94  1  6.49387582  9.64325272  0.08423172  1
  Mo  Mo95  1  8.14250827  11.19953213  1.67150972  1
  Mo  Mo96  1  6.44721772  9.75449143  3.22547558  1
  Mo  Mo97  1  4.91619862  11.23875313  1.79828788  1
  Mo  Mo98  1  6.46358132  6.49072821  3.26995915  1
  Mo  Mo99  1  8.01043775  11.25146272  4.80254708  1
  Mo  Mo100  1  4.90018255  11.31659937  4.93786450  1
  Mo  Mo101  1  6.47086947  9.76584069  6.46711617  1
  Mo  Mo102  1  4.92026966  8.06883236  4.90766930  1
  Mo  Mo103  1  8.10500505  8.16098682  4.83319904  1
  Mo  Mo104  1  6.55821812  6.53580753  6.42877888  1
  Mo  Mo105  1  8.08649671  8.13282714  11.34181997  1
  Mo  Mo106  1  6.50804502  9.71557824  9.58259422  1
  Mo  Mo107  1  8.02957164  11.24461146  11.31004599  1
  Mo  Mo108  1  8.18077605  11.26149138  8.15411570  1
  Mo  Mo109  1  4.85586779  8.13250940  11.16924756  1
  Mo  Mo110  1  6.58290252  6.64762214  9.74227830  1
  Mo  Mo111  1  4.92324847  11.21025585  11.29247101  1
  Mo  Mo112  1  4.94897546  11.26039915  8.07029198  1
  Mo  Mo113  1  4.92236476  8.08861166  8.08740028  1
  Mo  Mo114  1  8.09124294  8.05920088  8.05992572  1
  Mo  Mo115  1  6.49304175  6.48026265  12.85604850  1
  Mo  Mo116  1  4.93260194  8.02540131  14.38834849  1
  Mo  Mo117  1  8.10546180  11.21134808  14.44325789  1
  Mo  Mo118  1  6.51337709  9.65483037  12.96398073  1
  Mo  Mo119  1  7.94464576  8.11173716  14.53470736  1
  Mo  Mo120  1  4.79865477  11.16577228  14.50908959  1
