# generated using pymatgen
data_Mo
_symmetry_space_group_name_H-M   'P 1'
_cell_length_a   9.53814065
_cell_length_b   12.70394156
_cell_length_c   15.87771113
_cell_angle_alpha   90.00000000
_cell_angle_beta   90.00000000
_cell_angle_gamma   90.00000000
_symmetry_Int_Tables_number   1
_chemical_formula_structural   Mo
_chemical_formula_sum   Mo121
_cell_volume   1923.93371681
_cell_formula_units_Z   121
loop_
 _symmetry_equiv_pos_site_id
 _symmetry_equiv_pos_as_xyz
  1  'x, y, z'
loop_
 _atom_site_type_symbol
 _atom_site_label
 _atom_site_symmetry_multiplicity
 _atom_site_fract_x
 _atom_site_fract_y
 _atom_site_fract_z
 _atom_site_occupancy
  Mo  Mo0  1  4.74695255  1.62233949  1.52327419  1
  Mo  Mo1  1  1.60968947  4.81543540  1.59808204  1
  Mo  Mo2  1  1.56944575  0.76829474  0.72046994  1
  Mo  Mo3  1  3.21163404  0.01163325  3.14716266  1
  Mo  Mo4  1  3.20183376  3.04750160  -0.00224408  1
  Mo  Mo5  1  3.46145693  3.32681470  3.39078962  1
  Mo  Mo6  1  1.51166676  2.43021268  2.33009487  1
  Mo  Mo7  1  3.16135173  3.22144426  6.35213410  1
  Mo  Mo8  1  1.56362714  4.70738402  4.80185203  1
  Mo  Mo9  1  1.52013651  1.62600342  4.86986819  1
  Mo  Mo10  1  1.48765755  1.57708143  8.00807456  1
  Mo  Mo11  1  1.55669644  1.51365263  11.08802533  1
  Mo  Mo12  1  1.61116895  4.76578856  7.84184702  1
  Mo  Mo13  1  0.00051344  3.19328457  9.42455841  1
  Mo  Mo14  1  1.61291652  4.73051945  11.08693310  1
  Mo  Mo15  1  4.72844421  4.66570054  11.11672121  1
  Mo  Mo16  1  3.22221875  3.15806510  9.45936084  1
  Mo  Mo17  1  4.69477373  4.70496126  7.86521082  1
  Mo  Mo18  1  4.69533970  4.71879287  14.31904150  1
  Mo  Mo19  1  3.19837834  3.19450588  12.70909386  1
  Mo  Mo20  1  1.60882562  1.57359622  14.13971712  1
  Mo  Mo21  1  1.60245097  4.66483668  14.36898622  1
  Mo  Mo22  1  -0.06970902  6.21863375  12.69827085  1
  Mo  Mo23  1  3.15606930  6.30972577  12.67344743  1
  Mo  Mo24  1  1.52114930  7.85482471  1.62527858  1
  Mo  Mo25  1  1.57165007  11.00769675  1.52105994  1
  Mo  Mo26  1  3.20603388  6.32784686  3.09726759  1
  Mo  Mo27  1  3.10814024  9.56716398  3.08315796  1
  Mo  Mo28  1  3.21417596  9.55178339  6.29358062  1
  Mo  Mo29  1  3.14424342  6.44534107  6.30204044  1
  Mo  Mo30  1  -0.10594635  9.60183733  6.30980520  1
  Mo  Mo31  1  1.55947666  11.17868046  4.73181027  1
  Mo  Mo32  1  3.14912867  12.62906316  6.27859720  1
  Mo  Mo33  1  4.76400128  11.17828328  4.68021728  1
  Mo  Mo34  1  1.59569900  7.99139323  4.69846745  1
  Mo  Mo35  1  -0.07095258  6.30529727  6.34644457  1
  Mo  Mo36  1  4.66325792  8.01113281  4.67804274  1
  Mo  Mo37  1  1.50561977  11.02447738  7.86992727  1
  Mo  Mo38  1  4.72758036  11.04920151  7.83367515  1
  Mo  Mo39  1  1.52945026  7.99768844  7.88069071  1
  Mo  Mo40  1  0.01504806  6.24754807  9.46492128  1
  Mo  Mo41  1  1.52166563  7.84558046  11.07591151  1
  Mo  Mo42  1  -0.06465190  9.44746546  9.44053476  1
  Mo  Mo43  1  1.59948208  11.06091816  11.10222433  1
  Mo  Mo44  1  3.14390583  6.35026737  9.44718743  1
  Mo  Mo45  1  3.20238980  9.46539789  9.56091841  1
  Mo  Mo46  1  4.79672847  11.07551433  11.10887701  1
  Mo  Mo47  1  4.70555702  7.93942292  7.91071712  1
  Mo  Mo48  1  4.80761106  7.90728155  11.04215166  1
  Mo  Mo49  1  3.07326831  12.59073580  9.52333575  1
  Mo  Mo50  1  0.01411767  12.73977561  9.45808988  1
  Mo  Mo51  1  3.13651838  12.71991687  12.61188536  1
  Mo  Mo52  1  4.79678805  7.80085859  14.27783463  1
  Mo  Mo53  1  1.61424705  7.82245497  14.28994845  1
  Mo  Mo54  1  -0.04651879  9.41750855  12.64137558  1
  Mo  Mo55  1  1.54756142  11.11473533  14.21915206  1
  Mo  Mo56  1  3.08223453  9.49393490  12.68655420  1
  Mo  Mo57  1  3.21019428  6.36757426  15.85134148  1
  Mo  Mo58  1  3.44466637  12.40982273  15.58761749  1
  Mo  Mo59  1  3.21517883  9.46433545  15.79563773  1
  Mo  Mo60  1  4.79935976  4.80407620  1.53675827  1
  Mo  Mo61  1  9.21669703  3.45013745  3.39008463  1
  Mo  Mo62  1  7.87400824  1.48594970  1.52304581  1
  Mo  Mo63  1  6.31879128  -0.09649240  3.13901065  1
  Mo  Mo64  1  6.25323760  3.09240220  0.03415395  1
  Mo  Mo65  1  7.81591151  4.70622229  1.50539140  1
  Mo  Mo66  1  6.36804094  3.18792271  3.21143545  1
  Mo  Mo67  1  9.49052912  3.09077378  0.00600569  1
  Mo  Mo68  1  9.56421496  0.00891777  3.19289733  1
  Mo  Mo69  1  6.34625591  3.09122060  6.31378688  1
  Mo  Mo70  1  4.82643714  1.49781529  4.82070790  1
  Mo  Mo71  1  4.75408184  4.85635432  4.83592962  1
  Mo  Mo72  1  7.94108112  1.49608758  4.72814633  1
  Mo  Mo73  1  9.47884226  3.16407237  6.34557078  1
  Mo  Mo74  1  7.83513477  4.84311848  4.81449211  1
  Mo  Mo75  1  4.80186196  1.49256266  7.97186216  1
  Mo  Mo76  1  4.79353122  1.60318574  11.09040838  1
  Mo  Mo77  1  7.94933243  1.57316926  7.90468999  1
  Mo  Mo78  1  7.86556828  1.64108613  11.14104816  1
  Mo  Mo79  1  7.89986432  4.75188745  7.96832730  1
  Mo  Mo80  1  6.29516931  3.16368513  9.51606746  1
  Mo  Mo81  1  7.96904222  4.73568272  11.04642128  1
  Mo  Mo82  1  7.93009924  4.68496351  14.25599002  1
  Mo  Mo83  1  6.26054561  3.21047231  12.62707729  1
  Mo  Mo84  1  9.54979752  3.09652288  12.67215662  1
  Mo  Mo85  1  4.72442282  1.63233836  14.26174905  1
  Mo  Mo86  1  7.86241074  1.62194231  14.20783259  1
  Mo  Mo87  1  6.30269577  6.21888198  12.70105108  1
  Mo  Mo88  1  6.41220677  6.36942112  15.89860527  1
  Mo  Mo89  1  4.74916680  7.93810231  1.58511429  1
  Mo  Mo90  1  4.74355671  11.12228165  1.52755375  1
  Mo  Mo91  1  9.56698525  9.51260211  3.22343013  1
  Mo  Mo92  1  7.91763788  7.92343663  1.62162457  1
  Mo  Mo93  1  6.38450383  6.33114341  3.15601965  1
  Mo  Mo94  1  7.91331861  11.07620939  1.53707601  1
  Mo  Mo95  1  6.34407145  9.55735377  3.11130771  1
  Mo  Mo96  1  9.48858297  6.43420032  3.11969803  1
  Mo  Mo97  1  6.41379547  12.64405651  6.37249923  1
  Mo  Mo98  1  6.27864685  9.45530966  6.31272444  1
  Mo  Mo99  1  7.92904673  11.09507518  4.64853266  1
  Mo  Mo100  1  7.99488836  7.99821470  4.81061966  1
  Mo  Mo101  1  6.36000808  6.32616880  6.44979935  1
  Mo  Mo102  1  9.55081031  12.72517944  6.29157488  1
  Mo  Mo103  1  7.96523927  11.06697507  7.87328340  1
  Mo  Mo104  1  7.89878202  7.88454330  7.96141647  1
  Mo  Mo105  1  6.25159925  6.40124475  9.52068461  1
  Mo  Mo106  1  8.00980227  7.86765345  11.04522976  1
  Mo  Mo107  1  6.38679752  9.46814833  9.44781298  1
  Mo  Mo108  1  7.86093127  11.14521849  11.00134196  1
  Mo  Mo109  1  6.34490552  12.72508014  9.48882127  1
  Mo  Mo110  1  7.84330664  10.99319987  14.14527757  1
  Mo  Mo111  1  6.33852093  9.40442165  12.55538725  1
  Mo  Mo112  1  7.88870371  7.91339804  14.27138054  1
  Mo  Mo113  1  4.78452528  10.93531166  14.13048281  1
  Mo  Mo114  1  9.46835685  12.65517740  12.61595640  1
  Mo  Mo115  1  6.29636084  12.71475360  12.62439636  1
  Mo  Mo116  1  6.37499150  9.48951633  15.76267223  1
  Mo  Mo117  1  9.21874248  12.44864655  15.61591618  1
  Mo  Mo118  1  9.51836114  6.32079701  15.89761234  1
  Mo  Mo119  1  9.44141847  9.50213655  15.86554048  1
  Mo  Mo120  1  6.30355963  12.61089242  15.83068840  1
