# generated using pymatgen
data_Mo
_symmetry_space_group_name_H-M   'P 1'
_cell_length_a   9.57000497
_cell_length_b   12.73263933
_cell_length_c   15.91470748
_cell_angle_alpha   90.00000000
_cell_angle_beta   90.00000000
_cell_angle_gamma   90.00000000
_symmetry_Int_Tables_number   1
_chemical_formula_structural   Mo
_chemical_formula_sum   Mo121
_cell_volume   1939.22973152
_cell_formula_units_Z   121
loop_
 _symmetry_equiv_pos_site_id
 _symmetry_equiv_pos_as_xyz
  1  'x, y, z'
loop_
 _atom_site_type_symbol
 _atom_site_label
 _atom_site_symmetry_multiplicity
 _atom_site_fract_x
 _atom_site_fract_y
 _atom_site_fract_z
 _atom_site_occupancy
  Mo  Mo0  1  4.74601919  1.49250308  1.47064854  1
  Mo  Mo1  1  1.55464106  4.91206801  1.60678017  1
  Mo  Mo2  1  1.80829668  0.75993421  0.82051030  1
  Mo  Mo3  1  3.10858707  -0.06959444  3.13833545  1
  Mo  Mo4  1  3.13079906  3.20211178  0.03638359  1
  Mo  Mo5  1  3.36738610  3.35289915  3.25658429  1
  Mo  Mo6  1  1.25395003  2.37628629  2.38964129  1
  Mo  Mo7  1  3.20236994  3.22969556  6.35561930  1
  Mo  Mo8  1  1.60205379  4.77638320  4.71831626  1
  Mo  Mo9  1  1.60994764  1.48835260  4.84299933  1
  Mo  Mo10  1  1.55139416  1.54492021  7.90662622  1
  Mo  Mo11  1  1.52090107  1.51273913  11.02884630  1
  Mo  Mo12  1  1.50246224  4.70005615  7.97327213  1
  Mo  Mo13  1  -0.07054667  3.09574839  9.51374398  1
  Mo  Mo14  1  1.47473944  4.75369459  11.11781344  1
  Mo  Mo15  1  4.77260011  4.70336263  11.12953009  1
  Mo  Mo16  1  3.11491207  3.18204453  9.52424925  1
  Mo  Mo17  1  4.73097620  4.75737839  7.97437429  1
  Mo  Mo18  1  4.76250194  4.68257054  14.24576277  1
  Mo  Mo19  1  3.15371604  3.09231283  12.65924844  1
  Mo  Mo20  1  1.45521830  1.52130817  14.11975910  1
  Mo  Mo21  1  1.54809761  4.70599391  14.23513835  1
  Mo  Mo22  1  0.02998957  6.36669055  12.65696468  1
  Mo  Mo23  1  3.17363435  6.23160150  12.75079721  1
  Mo  Mo24  1  1.63270575  7.96186329  1.53241914  1
  Mo  Mo25  1  1.55740143  10.97522772  1.52602462  1
  Mo  Mo26  1  3.16199713  6.48073926  3.19961951  1
  Mo  Mo27  1  3.23582198  9.49217740  3.18603613  1
  Mo  Mo28  1  3.13733259  9.53467509  6.34594810  1
  Mo  Mo29  1  3.16049780  6.23872086  6.39734251  1
  Mo  Mo30  1  0.01092995  9.51181769  6.33431088  1
  Mo  Mo31  1  1.53928033  11.15931819  4.63745149  1
  Mo  Mo32  1  3.21153475  12.64604238  6.32271338  1
  Mo  Mo33  1  4.73817499  11.11205440  4.75102359  1
  Mo  Mo34  1  1.52253942  7.98866265  4.69581631  1
  Mo  Mo35  1  -0.03620555  6.39266577  6.35604627  1
  Mo  Mo36  1  4.72607109  7.96199237  4.82681446  1
  Mo  Mo37  1  1.58634553  11.16537511  7.92542251  1
  Mo  Mo38  1  4.75477690  11.11811132  7.91734000  1
  Mo  Mo39  1  1.59607631  7.88289503  7.96318389  1
  Mo  Mo40  1  -0.09822597  6.38147538  9.54557754  1
  Mo  Mo41  1  1.54774015  7.90398500  11.07700374  1
  Mo  Mo42  1  -0.04856761  9.48344948  9.49750947  1
  Mo  Mo43  1  1.55629927  11.10798336  11.05327255  1
  Mo  Mo44  1  3.15734026  6.28148665  9.54768256  1
  Mo  Mo45  1  3.08111251  9.48714321  9.39676611  1
  Mo  Mo46  1  4.66433029  11.02725760  11.04086084  1
  Mo  Mo47  1  4.72985418  7.96412718  7.92458844  1
  Mo  Mo48  1  4.68974947  7.87057268  11.04423682  1
  Mo  Mo49  1  3.17348541  12.78167754  9.50272239  1
  Mo  Mo50  1  -0.01607445  12.65140424  9.48204944  1
  Mo  Mo51  1  3.07054766  12.53741510  12.59083510  1
  Mo  Mo52  1  4.69341340  7.91727050  14.26135188  1
  Mo  Mo53  1  1.58446888  7.88206096  14.21686831  1
  Mo  Mo54  1  -0.01534286  9.47199099  12.64177275  1
  Mo  Mo55  1  1.54994447  11.01842047  14.20842835  1
  Mo  Mo56  1  3.18613543  9.45381032  12.59917577  1
  Mo  Mo57  1  3.15188904  6.33415201  15.84141212  1
  Mo  Mo58  1  3.51436060  12.38787883  15.54104875  1
  Mo  Mo59  1  3.13879220  9.50866015  15.79563773  1
  Mo  Mo60  1  4.81030192  4.74658517  1.57789564  1
  Mo  Mo61  1  9.05866121  3.40771919  3.51629682  1
  Mo  Mo62  1  8.02087352  1.66975222  1.52894386  1
  Mo  Mo63  1  6.36178544  -0.03750550  3.13151398  1
  Mo  Mo64  1  6.37818876  3.15781687  -0.00306550  1
  Mo  Mo65  1  7.90579215  4.92502583  1.61947983  1
  Mo  Mo66  1  6.34379343  3.14336964  3.10328478  1
  Mo  Mo67  1  9.55906162  3.13872270  -0.03480114  1
  Mo  Mo68  1  9.47436411  -0.05609775  3.03482180  1
  Mo  Mo69  1  6.31507770  3.23398505  6.39813685  1
  Mo  Mo70  1  4.75683227  1.55713333  4.73435219  1
  Mo  Mo71  1  4.79222054  4.74032967  4.81350910  1
  Mo  Mo72  1  7.86314552  1.58330714  4.90647777  1
  Mo  Mo73  1  9.61498381  3.17391237  6.37709652  1
  Mo  Mo74  1  7.82360677  4.90585222  4.91745965  1
  Mo  Mo75  1  4.79601356  1.65539435  7.92597855  1
  Mo  Mo76  1  4.75269173  1.54756142  11.05257749  1
  Mo  Mo77  1  7.92402247  1.51234196  7.93691079  1
  Mo  Mo78  1  7.92078549  1.43008708  11.03569757  1
  Mo  Mo79  1  8.01654431  4.77334481  7.92651474  1
  Mo  Mo80  1  6.32190910  3.07499602  9.55164438  1
  Mo  Mo81  1  7.90373677  4.70756275  11.16130407  1
  Mo  Mo82  1  7.95957953  4.73373657  14.32380760  1
  Mo  Mo83  1  6.34842051  3.11324394  12.63998547  1
  Mo  Mo84  1  9.43969076  3.17897635  12.68784502  1
  Mo  Mo85  1  4.77625412  1.55452191  14.16881017  1
  Mo  Mo86  1  7.91877976  1.52060319  14.16632783  1
  Mo  Mo87  1  6.37238008  6.35552001  12.67712130  1
  Mo  Mo88  1  6.29626154  6.28797052  15.84429163  1
  Mo  Mo89  1  4.75167893  7.84845998  1.49987067  1
  Mo  Mo90  1  4.81399564  11.03113006  1.52001736  1
  Mo  Mo91  1  9.45982752  9.48983407  3.07003133  1
  Mo  Mo92  1  7.97739282  7.88456316  1.45262674  1
  Mo  Mo93  1  6.31409469  6.37960865  3.08338633  1
  Mo  Mo94  1  7.88003537  11.09150061  1.48309997  1
  Mo  Mo95  1  6.37374040  9.55907155  3.15499693  1
  Mo  Mo96  1  9.52802241  6.41461960  3.15110462  1
  Mo  Mo97  1  6.24683315  12.74513747  6.28592507  1
  Mo  Mo98  1  6.39181185  9.61975984  6.37079138  1
  Mo  Mo99  1  7.99201878  11.13409760  4.76699002  1
  Mo  Mo100  1  7.92338699  7.99395500  4.64571272  1
  Mo  Mo101  1  6.31762954  6.48630964  6.37206234  1
  Mo  Mo102  1  9.51004033  12.65607104  6.36050455  1
  Mo  Mo103  1  7.94047543  11.07332987  7.95801069  1
  Mo  Mo104  1  7.96457400  8.01897701  7.88733345  1
  Mo  Mo105  1  6.42440996  6.31251592  9.44502283  1
  Mo  Mo106  1  7.87233018  7.91341790  11.07273411  1
  Mo  Mo107  1  6.27316584  9.41955400  9.54263844  1
  Mo  Mo108  1  7.90778795  10.94543962  11.11374240  1
  Mo  Mo109  1  6.31079814  12.64256710  9.48469065  1
  Mo  Mo110  1  7.89021297  10.97175244  14.23067013  1
  Mo  Mo111  1  6.32884973  9.43557007  12.64038264  1
  Mo  Mo112  1  7.94279890  7.84824154  14.26442998  1
  Mo  Mo113  1  4.86203392  10.97522772  14.10148906  1
  Mo  Mo114  1  9.55095925  12.68943372  12.62221190  1
  Mo  Mo115  1  6.35898536  12.59907647  12.51537190  1
  Mo  Mo116  1  6.37337301  9.43377286  15.84895844  1
  Mo  Mo117  1  9.30279457  12.53115960  15.70984800  1
  Mo  Mo118  1  9.53326512  6.34603746  15.87129951  1
  Mo  Mo119  1  9.50012089  9.45723595  15.74678525  1
  Mo  Mo120  1  6.35002907  12.71922182  15.84409305  1
