# generated using pymatgen
data_Mo
_symmetry_space_group_name_H-M   'P 1'
_cell_length_a   9.54709881
_cell_length_b   12.75927467
_cell_length_c   15.97075688
_cell_angle_alpha   90.00000000
_cell_angle_beta   90.00000000
_cell_angle_gamma   90.00000000
_symmetry_Int_Tables_number   1
_chemical_formula_structural   Mo
_chemical_formula_sum   Mo121
_cell_volume   1945.46267432
_cell_formula_units_Z   121
loop_
 _symmetry_equiv_pos_site_id
 _symmetry_equiv_pos_as_xyz
  1  'x, y, z'
loop_
 _atom_site_type_symbol
 _atom_site_label
 _atom_site_symmetry_multiplicity
 _atom_site_fract_x
 _atom_site_fract_y
 _atom_site_fract_z
 _atom_site_occupancy
  Mo  Mo0  1  1.50152887  1.63691580  4.74267300  1
  Mo  Mo1  1  1.53539795  4.73268405  1.40363524  1
  Mo  Mo2  1  2.30336501  1.07138868  1.05654427  1
  Mo  Mo3  1  3.18197502  -0.01885617  3.16499580  1
  Mo  Mo4  1  3.13162320  -0.00933548  6.34260190  1
  Mo  Mo5  1  3.11527946  2.99941367  3.07121293  1
  Mo  Mo6  1  0.60523466  2.25532673  2.11881779  1
  Mo  Mo7  1  3.15416286  3.11628233  6.35207452  1
  Mo  Mo8  1  1.55685531  4.80973594  4.78746437  1
  Mo  Mo9  1  4.73887998  4.76420979  1.50920428  1
  Mo  Mo10  1  4.70967771  4.78760338  4.73662601  1
  Mo  Mo11  1  4.72932793  1.60032608  4.79763205  1
  Mo  Mo12  1  3.06990225  6.27728652  3.10101096  1
  Mo  Mo13  1  4.69935117  1.46155324  7.86534984  1
  Mo  Mo14  1  0.09787685  0.03860935  -0.02573424  1
  Mo  Mo15  1  1.57183873  1.51340440  7.90343889  1
  Mo  Mo16  1  1.59332588  1.48228576  11.09567095  1
  Mo  Mo17  1  1.61226118  4.73819485  7.92656439  1
  Mo  Mo18  1  0.07747697  3.14169158  9.57461101  1
  Mo  Mo19  1  1.60182542  4.66186780  11.09209637  1
  Mo  Mo20  1  4.67635475  4.74435106  11.03400957  1
  Mo  Mo21  1  3.15491749  3.00033710  9.50660477  1
  Mo  Mo22  1  0.02335199  3.09120074  12.69042665  1
  Mo  Mo23  1  4.74861076  4.74833274  14.18171835  1
  Mo  Mo24  1  3.19621373  3.20418702  12.63780100  1
  Mo  Mo25  1  1.62962764  1.47081734  14.25221686  1
  Mo  Mo26  1  1.51931237  4.77427817  14.21786125  1
  Mo  Mo27  1  3.16808384  6.30519798  15.84121353  1
  Mo  Mo28  1  4.73117479  1.52113938  11.04840716  1
  Mo  Mo29  1  0.00299298  6.32799580  9.48959576  1
  Mo  Mo30  1  3.25016992  -0.06104744  12.67672412  1
  Mo  Mo31  1  3.22261592  3.20347210  15.73387707  1
  Mo  Mo32  1  1.51786268  7.87799985  1.48451987  1
  Mo  Mo33  1  1.61810958  11.12367176  1.50247216  1
  Mo  Mo34  1  -0.07373916  9.51749728  3.19947057  1
  Mo  Mo35  1  3.12976641  9.41655534  3.14320084  1
  Mo  Mo36  1  3.08996950  9.55850557  6.28638182  1
  Mo  Mo37  1  3.21276599  6.36105067  6.27371195  1
  Mo  Mo38  1  0.00219109  12.62499212  3.18157785  1
  Mo  Mo39  1  1.63207027  11.09666388  4.72045107  1
  Mo  Mo40  1  4.70778120  7.92974178  1.50693045  1
  Mo  Mo41  1  4.65553287  11.08524511  4.74771712  1
  Mo  Mo42  1  1.57151106  7.83966256  4.68393086  1
  Mo  Mo43  1  0.02136800  6.38108813  6.40121496  1
  Mo  Mo44  1  1.55303250  11.16021183  7.92332741  1
  Mo  Mo45  1  0.02748042  9.50772679  -0.02958544  1
  Mo  Mo46  1  3.13535664  9.37764214  -0.05112333  1
  Mo  Mo47  1  1.57875949  8.00520498  7.94129957  1
  Mo  Mo48  1  3.02126821  6.36847783  12.70164684  1
  Mo  Mo49  1  1.58861936  7.90528575  11.10699043  1
  Mo  Mo50  1  0.03278886  9.53447650  9.49763855  1
  Mo  Mo51  1  1.53511992  11.11205440  11.11682050  1
  Mo  Mo52  1  3.15063794  6.37071194  9.42492579  1
  Mo  Mo53  1  3.19853721  9.51007012  9.50958358  1
  Mo  Mo54  1  3.17566987  9.50805446  12.72944907  1
  Mo  Mo55  1  4.73376635  7.99947573  7.97832618  1
  Mo  Mo56  1  4.71716445  7.95478365  11.16448146  1
  Mo  Mo57  1  3.14605057  12.58775699  9.49472925  1
  Mo  Mo58  1  3.51831248  12.35461544  15.63547704  1
  Mo  Mo59  1  0.02837605  12.72041334  12.69727792  1
  Mo  Mo60  1  1.61218175  11.03738556  14.26681303  1
  Mo  Mo61  1  1.45650912  7.95624326  14.28647318  1
  Mo  Mo62  1  4.73528555  11.09229496  7.90455098  1
  Mo  Mo63  1  7.73966390  4.99744071  4.96532913  1
  Mo  Mo64  1  9.03240797  3.63145763  3.59977302  1
  Mo  Mo65  1  7.81263482  1.41801296  1.55026221  1
  Mo  Mo66  1  6.33045829  -0.00008571  3.09620515  1
  Mo  Mo67  1  9.48409489  6.27327506  3.12741315  1
  Mo  Mo68  1  7.95303608  4.64547442  1.36686679  1
  Mo  Mo69  1  6.26510319  3.23826461  3.10157693  1
  Mo  Mo70  1  9.47182219  -0.04913160  6.35137946  1
  Mo  Mo71  1  9.37032420  3.19070294  6.42318865  1
  Mo  Mo72  1  6.25157939  3.09706900  6.30846474  1
  Mo  Mo73  1  7.87971763  1.52931124  4.61614307  1
  Mo  Mo74  1  4.85148893  1.60430776  1.60586667  1
  Mo  Mo75  1  7.87705656  4.71590342  7.86357248  1
  Mo  Mo76  1  6.36103081  6.30458235  15.90287490  1
  Mo  Mo77  1  6.32952493  6.26133003  12.65080848  1
  Mo  Mo78  1  7.90072817  1.59977997  7.93975059  1
  Mo  Mo79  1  7.95810999  1.63618103  11.10490526  1
  Mo  Mo80  1  9.47985505  -0.01031929  9.51803347  1
  Mo  Mo81  1  6.29939922  3.14050998  9.48985393  1
  Mo  Mo82  1  7.92519413  4.67398163  11.10401162  1
  Mo  Mo83  1  7.90822484  4.69504182  14.17188827  1
  Mo  Mo84  1  6.38839615  3.05250600  12.69648357  1
  Mo  Mo85  1  8.04034501  1.48595963  14.35240418  1
  Mo  Mo86  1  4.88930989  1.48387446  14.29540961  1
  Mo  Mo87  1  4.71746233  4.70659960  7.89968559  1
  Mo  Mo88  1  9.54194339  6.22689498  12.65756045  1
  Mo  Mo89  1  6.34189692  6.28156608  9.59885852  1
  Mo  Mo90  1  6.32848234  0.08096049  9.57007329  1
  Mo  Mo91  1  6.41099539  -0.02436309  12.75030074  1
  Mo  Mo92  1  6.37880438  3.17086406  15.78024721  1
  Mo  Mo93  1  9.46173396  3.08504454  15.72017454  1
  Mo  Mo94  1  7.87880413  11.14700578  7.77329467  1
  Mo  Mo95  1  4.79142619  11.08842251  1.53736396  1
  Mo  Mo96  1  4.81811633  7.92807365  4.63714368  1
  Mo  Mo97  1  7.90786739  7.89099739  1.59427910  1
  Mo  Mo98  1  6.31681534  6.40860241  3.11383970  1
  Mo  Mo99  1  7.98188089  11.04840716  1.58354545  1
  Mo  Mo100  1  6.31070877  9.53542972  3.13817658  1
  Mo  Mo101  1  9.47260661  9.42955288  6.32503685  1
  Mo  Mo102  1  6.27238142  12.66679476  6.22456158  1
  Mo  Mo103  1  6.28562719  9.49200860  6.24732962  1
  Mo  Mo104  1  7.86224194  11.08554299  4.74394396  1
  Mo  Mo105  1  7.90713261  7.89383719  4.78736508  1
  Mo  Mo106  1  6.17757582  6.39378779  6.42274183  1
  Mo  Mo107  1  6.45172565  12.60503409  -0.04451961  1
  Mo  Mo108  1  6.37410779  9.53119981  -0.03247886  1
  Mo  Mo109  1  7.91347748  7.88832639  7.98843427  1
  Mo  Mo110  1  9.49125397  9.49939605  12.70343412  1
  Mo  Mo111  1  7.93390219  7.87283658  11.06409556  1
  Mo  Mo112  1  6.44216367  9.63662984  9.43297851  1
  Mo  Mo113  1  8.01206617  11.18999994  11.05218032  1
  Mo  Mo114  1  4.76647369  7.89844442  14.22431534  1
  Mo  Mo115  1  7.98944707  11.10738760  14.26045823  1
  Mo  Mo116  1  6.44426870  9.50973252  12.57256506  1
  Mo  Mo117  1  8.00006156  7.90139344  14.28885622  1
  Mo  Mo118  1  4.84675263  10.88367895  14.16553348  1
  Mo  Mo119  1  9.42787481  6.31158256  15.81351059  1
  Mo  Mo120  1  4.81377720  11.14889236  11.08494723  1
