# generated using pymatgen
data_Mo
_symmetry_space_group_name_H-M   'P 1'
_cell_length_a   9.51778260
_cell_length_b   12.71109236
_cell_length_c   16.03532847
_cell_angle_alpha   90.00000000
_cell_angle_beta   90.00000000
_cell_angle_gamma   90.00000000
_symmetry_Int_Tables_number   1
_chemical_formula_structural   Mo
_chemical_formula_sum   Mo121
_cell_volume   1939.97670622
_cell_formula_units_Z   121
loop_
 _symmetry_equiv_pos_site_id
 _symmetry_equiv_pos_as_xyz
  1  'x, y, z'
loop_
 _atom_site_type_symbol
 _atom_site_label
 _atom_site_symmetry_multiplicity
 _atom_site_fract_x
 _atom_site_fract_y
 _atom_site_fract_z
 _atom_site_occupancy
  Mo  Mo0  1  4.60731586  1.61325412  1.45073023  1
  Mo  Mo1  1  1.59571885  4.66787507  1.42417910  1
  Mo  Mo2  1  1.53841647  1.62940920  0.28835380  1
  Mo  Mo3  1  1.53817817  1.48441065  2.56781386  1
  Mo  Mo4  1  3.16740864  3.24337823  3.29812876  1
  Mo  Mo5  1  3.17574931  3.22501883  6.37461418  1
  Mo  Mo6  1  1.53282624  4.76422965  4.67280004  1
  Mo  Mo7  1  1.50021820  1.57636652  4.96039424  1
  Mo  Mo8  1  1.58921512  1.52966870  7.94837921  1
  Mo  Mo9  1  1.50536161  1.58886759  11.02715831  1
  Mo  Mo10  1  1.58723917  4.77926272  7.92683248  1
  Mo  Mo11  1  1.59689052  4.71738290  11.09050768  1
  Mo  Mo12  1  3.12575494  3.19012703  9.48467080  1
  Mo  Mo13  1  3.19928191  3.22275493  12.65835480  1
  Mo  Mo14  1  1.62376932  1.51866696  13.95095985  1
  Mo  Mo15  1  1.55117571  4.72171210  14.24000374  1
  Mo  Mo16  1  3.24255409  3.32052941  15.78411967  1
  Mo  Mo17  1  0.05633446  6.31352871  -0.12235761  1
  Mo  Mo18  1  1.63021348  7.92985101  1.52490261  1
  Mo  Mo19  1  0.06845912  6.35067448  3.07242431  1
  Mo  Mo20  1  -0.07733438  9.41039913  -0.05967024  1
  Mo  Mo21  1  1.61034481  11.03271876  1.57426149  1
  Mo  Mo22  1  -0.01622508  9.54086109  3.12874368  1
  Mo  Mo23  1  3.13370837  6.36926225  -0.10227646  1
  Mo  Mo24  1  3.22745152  6.30531713  3.06610923  1
  Mo  Mo25  1  3.12560600  9.48468073  -0.13438505  1
  Mo  Mo26  1  3.18256085  9.44484410  3.09185608  1
  Mo  Mo27  1  4.79152548  7.84761598  1.38411410  1
  Mo  Mo28  1  3.20558706  12.48895979  3.15591043  1
  Mo  Mo29  1  1.54749192  7.96229025  4.69081191  1
  Mo  Mo30  1  -0.01772084  6.34917514  6.28700737  1
  Mo  Mo31  1  1.55683545  11.12337388  4.81216864  1
  Mo  Mo32  1  0.03553711  9.55399764  6.37975760  1
  Mo  Mo33  1  3.09964071  6.34540198  6.35382209  1
  Mo  Mo34  1  3.21604268  9.50977224  6.31151305  1
  Mo  Mo35  1  4.69702769  7.91604919  4.68098184  1
  Mo  Mo36  1  3.19218241  12.68943372  6.33059730  1
  Mo  Mo37  1  1.62007559  7.93655333  7.88372909  1
  Mo  Mo38  1  1.58938392  7.92461823  11.10232362  1
  Mo  Mo39  1  1.67701059  11.12764351  7.95184456  1
  Mo  Mo40  1  1.57847154  11.07491857  11.13360113  1
  Mo  Mo41  1  3.20846657  6.35054540  9.62703807  1
  Mo  Mo42  1  3.16766680  9.49962442  9.53468502  1
  Mo  Mo43  1  4.77604560  7.89868272  8.02086359  1
  Mo  Mo44  1  4.79350143  7.95618369  11.20251094  1
  Mo  Mo45  1  3.23383611  12.72567591  9.49942584  1
  Mo  Mo46  1  3.21055174  9.54801023  12.73292434  1
  Mo  Mo47  1  3.14711301  6.34351540  12.75526542  1
  Mo  Mo48  1  -0.02947334  6.29370970  12.71117903  1
  Mo  Mo49  1  1.53942927  7.90185019  14.31030366  1
  Mo  Mo50  1  0.05103020  9.46083038  12.69161818  1
  Mo  Mo51  1  1.60078283  11.06121604  14.36819187  1
  Mo  Mo52  1  4.70997559  7.91721092  14.29501243  1
  Mo  Mo53  1  3.19329450  12.65368799  12.59103368  1
  Mo  Mo54  1  3.22672668  12.50127220  15.87894513  1
  Mo  Mo55  1  4.75554146  4.75547195  1.47890978  1
  Mo  Mo56  1  6.29336217  -0.01528666  -0.15051531  1
  Mo  Mo57  1  7.80843470  1.59349468  1.51172633  1
  Mo  Mo58  1  6.28356188  0.01198961  3.10830904  1
  Mo  Mo59  1  6.29241888  3.14420371  -0.16728899  1
  Mo  Mo60  1  7.86680945  4.76494457  1.39745917  1
  Mo  Mo61  1  6.21325203  3.19045470  3.12165411  1
  Mo  Mo62  1  9.35225275  3.24621803  3.06653620  1
  Mo  Mo63  1  6.34288985  3.12898199  6.32716174  1
  Mo  Mo64  1  4.68135915  1.56603997  4.74515534  1
  Mo  Mo65  1  4.73530541  4.84392276  4.79037368  1
  Mo  Mo66  1  7.81737113  1.58515401  4.73466000  1
  Mo  Mo67  1  7.87511040  4.79175386  4.65755846  1
  Mo  Mo68  1  9.46834692  3.20718569  6.33432081  1
  Mo  Mo69  1  4.74596955  1.60464536  7.93542138  1
  Mo  Mo70  1  4.71504950  1.58978109  11.08822392  1
  Mo  Mo71  1  4.79167442  4.79258793  7.97254729  1
  Mo  Mo72  1  4.76530202  4.76471619  11.13767217  1
  Mo  Mo73  1  7.89019311  1.51601582  7.92320826  1
  Mo  Mo74  1  7.94831963  1.59598695  11.07144329  1
  Mo  Mo75  1  7.97252743  4.76254166  7.85850850  1
  Mo  Mo76  1  6.32129348  3.14605057  9.48383673  1
  Mo  Mo77  1  7.90592123  4.73817499  11.07293270  1
  Mo  Mo78  1  9.47516839  3.16178862  9.42819255  1
  Mo  Mo79  1  9.46923063  3.19876558  12.63760242  1
  Mo  Mo80  1  4.72471077  1.57097487  14.29253009  1
  Mo  Mo81  1  4.75111296  4.82507682  14.31953797  1
  Mo  Mo82  1  7.94755507  1.51862725  14.33264473  1
  Mo  Mo83  1  6.31466066  3.06732062  12.66729123  1
  Mo  Mo84  1  7.86514132  4.69445599  14.23454258  1
  Mo  Mo85  1  9.33044786  3.27764448  15.80139677  1
  Mo  Mo86  1  4.83814386  11.06568426  1.48757811  1
  Mo  Mo87  1  6.41628774  6.35754560  -0.17652727  1
  Mo  Mo88  1  8.00802492  7.88457309  1.54041228  1
  Mo  Mo89  1  6.38730391  6.30784912  3.04860376  1
  Mo  Mo90  1  6.29855523  9.45035490  -0.15304631  1
  Mo  Mo91  1  7.88915053  11.08147195  1.44843655  1
  Mo  Mo92  1  6.31904944  9.42042779  3.04815694  1
  Mo  Mo93  1  9.32356681  12.61406982  3.27066413  1
  Mo  Mo94  1  6.36436708  9.42842093  6.33991104  1
  Mo  Mo95  1  7.82454013  10.99826385  4.69929159  1
  Mo  Mo96  1  4.76988939  11.05932946  4.67465683  1
  Mo  Mo97  1  7.92094436  7.92332741  4.78367135  1
  Mo  Mo98  1  6.29790982  6.35960098  6.36122940  1
  Mo  Mo99  1  6.28589528  12.61526134  6.31918845  1
  Mo  Mo100  1  9.38456291  12.67166015  6.36634302  1
  Mo  Mo101  1  4.79633130  11.06806730  7.89514787  1
  Mo  Mo102  1  4.73930694  11.09894764  11.06717366  1
  Mo  Mo103  1  7.94628411  7.90198920  8.00880934  1
  Mo  Mo104  1  6.36016695  6.33574071  9.59046821  1
  Mo  Mo105  1  7.92077556  7.90143316  11.15981466  1
  Mo  Mo106  1  7.90055937  11.07809597  7.92226497  1
  Mo  Mo107  1  6.36538980  9.51104320  9.57391595  1
  Mo  Mo108  1  7.90048987  11.13221102  11.09864976  1
  Mo  Mo109  1  9.55558634  6.32771778  9.52339533  1
  Mo  Mo110  1  9.49125397  9.51983069  9.52611598  1
  Mo  Mo111  1  6.33779609  12.70939174  9.53034589  1
  Mo  Mo112  1  9.57925795  12.61128959  9.51455819  1
  Mo  Mo113  1  7.97911060  10.99667515  14.28369295  1
  Mo  Mo114  1  6.40287316  9.46673836  12.70244119  1
  Mo  Mo115  1  7.94011797  7.87756296  14.32619065  1
  Mo  Mo116  1  4.82792655  11.08772745  14.27574946  1
  Mo  Mo117  1  6.31635858  6.28708681  12.73252717  1
  Mo  Mo118  1  6.32817453  12.65259576  12.70472494  1
  Mo  Mo119  1  9.46715539  12.60483550  12.70978892  1
  Mo  Mo120  1  9.41769721  12.48687462  15.89006602  1
