# generated using pymatgen
data_Mo
_symmetry_space_group_name_H-M   'P 1'
_cell_length_a   9.61307981
_cell_length_b   12.77660799
_cell_length_c   15.91173166
_cell_angle_alpha   90.00000000
_cell_angle_beta   90.00000000
_cell_angle_gamma   90.00000000
_symmetry_Int_Tables_number   1
_chemical_formula_structural   Mo
_chemical_formula_sum   Mo121
_cell_volume   1954.31949377
_cell_formula_units_Z   121
loop_
 _symmetry_equiv_pos_site_id
 _symmetry_equiv_pos_as_xyz
  1  'x, y, z'
loop_
 _atom_site_type_symbol
 _atom_site_label
 _atom_site_symmetry_multiplicity
 _atom_site_fract_x
 _atom_site_fract_y
 _atom_site_fract_z
 _atom_site_occupancy
  Mo  Mo0  1  1.63700516  1.52110959  4.77319587  1
  Mo  Mo1  1  1.53883351  4.92773655  1.51858753  1
  Mo  Mo2  1  1.83128317  2.44240595  1.02527669  1
  Mo  Mo3  1  1.34243062  0.54804449  2.24800879  1
  Mo  Mo4  1  3.17963169  3.15769772  3.09193552  1
  Mo  Mo5  1  3.14574276  3.09320648  6.25676252  1
  Mo  Mo6  1  1.62870421  4.70475274  4.65578110  1
  Mo  Mo7  1  0.06590449  3.12012499  3.15555297  1
  Mo  Mo8  1  -0.09738833  3.12885291  6.31331027  1
  Mo  Mo9  1  3.20847650  6.14677492  6.33320872  1
  Mo  Mo10  1  0.06662238  6.22183101  6.35219367  1
  Mo  Mo11  1  1.53057227  4.68615504  7.89158322  1
  Mo  Mo12  1  3.04461215  0.02878692  -0.07763345  1
  Mo  Mo13  1  1.59838985  1.42881612  7.82740972  1
  Mo  Mo14  1  1.52482317  1.51727685  11.06677649  1
  Mo  Mo15  1  3.20359125  0.02669352  12.64455297  1
  Mo  Mo16  1  1.56730100  4.65228596  11.11950143  1
  Mo  Mo17  1  3.16414188  3.13289416  9.44047518  1
  Mo  Mo18  1  3.12579466  3.18886600  12.68794431  1
  Mo  Mo19  1  1.43984764  1.52817930  14.25291191  1
  Mo  Mo20  1  1.49073565  4.74448014  14.16066809  1
  Mo  Mo21  1  3.47981633  3.52254240  15.60201507  1
  Mo  Mo22  1  4.78636221  1.53058220  11.14700578  1
  Mo  Mo23  1  4.80883237  4.61064220  7.88551638  1
  Mo  Mo24  1  4.66176851  4.78054360  11.00213631  1
  Mo  Mo25  1  -0.08895214  3.19461511  9.47740250  1
  Mo  Mo26  1  2.99616677  6.40105609  9.58575176  1
  Mo  Mo27  1  3.21259719  -0.05111112  9.47834579  1
  Mo  Mo28  1  3.16120278  12.61287829  6.28808968  1
  Mo  Mo29  1  1.58818246  7.87657995  1.53397805  1
  Mo  Mo30  1  3.11528939  9.42256260  6.37116869  1
  Mo  Mo31  1  -0.09816063  9.48663681  -0.04354723  1
  Mo  Mo32  1  1.58058650  10.83274130  1.54586350  1
  Mo  Mo33  1  -0.01459548  12.72726461  6.20597381  1
  Mo  Mo34  1  4.82377607  11.04185377  4.83851125  1
  Mo  Mo35  1  3.24498679  6.39522755  3.17960190  1
  Mo  Mo36  1  1.62869428  7.78934053  4.73091663  1
  Mo  Mo37  1  3.20888361  9.45664019  3.19524066  1
  Mo  Mo38  1  1.49573012  11.02686043  4.63145415  1
  Mo  Mo39  1  3.38060209  12.49183930  3.28133820  1
  Mo  Mo40  1  1.53897252  7.84054628  7.90173104  1
  Mo  Mo41  1  4.74807457  7.82112443  7.96681804  1
  Mo  Mo42  1  4.70440521  11.06151392  7.89536631  1
  Mo  Mo43  1  -0.15075858  12.78415988  0.01137290  1
  Mo  Mo44  1  1.55373749  11.21194384  14.38239086  1
  Mo  Mo45  1  1.50628504  7.98238729  11.15733232  1
  Mo  Mo46  1  1.51371221  11.09020979  7.98069930  1
  Mo  Mo47  1  1.52039467  11.19218440  11.14005522  1
  Mo  Mo48  1  4.76140971  11.17232566  14.25152180  1
  Mo  Mo49  1  3.04690584  9.57719264  9.52742665  1
  Mo  Mo50  1  1.57054791  7.94649263  14.24635853  1
  Mo  Mo51  1  4.67330644  8.05164463  11.04086084  1
  Mo  Mo52  1  -0.06124930  9.60381328  9.53967949  1
  Mo  Mo53  1  3.11518017  9.65154375  12.74632899  1
  Mo  Mo54  1  3.11480285  6.39609140  12.54645082  1
  Mo  Mo55  1  3.13305303  6.49023174  15.89880386  1
  Mo  Mo56  1  3.24421230  9.52104207  15.78322602  1
  Mo  Mo57  1  4.77130929  4.87166541  1.57777649  1
  Mo  Mo58  1  4.74651566  1.60616455  1.49739826  1
  Mo  Mo59  1  8.06916996  1.57011102  1.54342088  1
  Mo  Mo60  1  7.83322833  1.61762304  4.73640757  1
  Mo  Mo61  1  6.37960865  6.26852882  6.33834220  1
  Mo  Mo62  1  7.89928841  4.74750860  1.47045988  1
  Mo  Mo63  1  6.37705681  3.03793962  3.13119624  1
  Mo  Mo64  1  7.94545997  4.71744247  4.73140316  1
  Mo  Mo65  1  6.27788229  3.04939811  6.37234036  1
  Mo  Mo66  1  4.73862181  1.47070812  4.68050523  1
  Mo  Mo67  1  4.76751627  4.71188203  4.67875766  1
  Mo  Mo68  1  6.39453249  6.32138284  3.13851418  1
  Mo  Mo69  1  7.91093556  1.49130163  7.84461732  1
  Mo  Mo70  1  7.91625770  4.65587047  7.97178272  1
  Mo  Mo71  1  4.72012340  1.50186647  7.97406648  1
  Mo  Mo72  1  9.40289253  3.24752871  15.77597759  1
  Mo  Mo73  1  7.89025269  4.84321777  14.27584875  1
  Mo  Mo74  1  6.30059075  3.11770223  12.59460826  1
  Mo  Mo75  1  6.32507657  -0.05753383  12.74146360  1
  Mo  Mo76  1  8.05051268  1.48536386  11.03917285  1
  Mo  Mo77  1  9.49111496  6.29406715  9.51752707  1
  Mo  Mo78  1  6.35598669  2.99915551  9.49830382  1
  Mo  Mo79  1  7.88171343  4.68783310  11.02507314  1
  Mo  Mo80  1  7.84853942  1.58897681  14.23702493  1
  Mo  Mo81  1  9.47208036  3.15968359  12.65507810  1
  Mo  Mo82  1  4.87209237  1.64348904  14.35160983  1
  Mo  Mo83  1  4.77063410  4.96926116  14.18330705  1
  Mo  Mo84  1  6.20765187  6.19386991  9.44114045  1
  Mo  Mo85  1  6.43292936  3.19731589  15.86732777  1
  Mo  Mo86  1  4.77565836  11.11801202  1.59473585  1
  Mo  Mo87  1  6.27916317  12.62042461  3.12101863  1
  Mo  Mo88  1  8.00741922  7.89853378  1.51605554  1
  Mo  Mo89  1  9.57656709  9.38571472  6.44024730  1
  Mo  Mo90  1  9.57394574  9.42003061  3.07036893  1
  Mo  Mo91  1  7.87440542  11.03003783  1.52699770  1
  Mo  Mo92  1  6.34447855  9.47184205  3.20576579  1
  Mo  Mo93  1  9.14093595  12.49561246  3.46088102  1
  Mo  Mo94  1  6.37227085  9.44760447  6.37390920  1
  Mo  Mo95  1  7.88029353  10.94643255  4.85204498  1
  Mo  Mo96  1  6.39645879  12.63780100  6.43617626  1
  Mo  Mo97  1  8.03535054  7.90181047  4.69879512  1
  Mo  Mo98  1  4.78821900  7.97974608  1.43728587  1
  Mo  Mo99  1  4.82298172  7.93974066  4.84410148  1
  Mo  Mo100  1  9.53738581  6.33522438  3.07596909  1
  Mo  Mo101  1  7.94163717  7.80002453  7.89548547  1
  Mo  Mo102  1  9.47034272  12.74771910  12.68039799  1
  Mo  Mo103  1  4.65875991  11.20400035  11.03053430  1
  Mo  Mo104  1  6.30164326  6.35487460  12.60989948  1
  Mo  Mo105  1  4.73285285  8.01789471  14.18420069  1
  Mo  Mo106  1  7.82677424  7.92668354  11.00263277  1
  Mo  Mo107  1  7.92580975  11.13499124  7.93708951  1
  Mo  Mo108  1  6.42874909  9.50460897  9.45889416  1
  Mo  Mo109  1  7.88802851  11.16368711  11.13270749  1
  Mo  Mo110  1  9.56205036  9.60978083  12.68585914  1
  Mo  Mo111  1  9.57324075  6.29812827  12.71922182  1
  Mo  Mo112  1  6.26644365  12.68238386  9.50562176  1
  Mo  Mo113  1  9.60232387  12.59401249  9.45955943  1
  Mo  Mo114  1  7.96212145  11.23349057  14.40354042  1
  Mo  Mo115  1  6.24645584  9.56930872  12.61377194  1
  Mo  Mo116  1  7.99287270  8.06759119  14.19075407  1
  Mo  Mo117  1  6.42424116  6.48670681  15.73179190  1
  Mo  Mo118  1  6.26909480  9.58785678  15.92710256  1
  Mo  Mo119  1  6.26529185  12.71107974  15.90625089  1
  Mo  Mo120  1  9.48055011  6.42934486  15.71679856  1
