# generated using pymatgen
data_Mo
_symmetry_space_group_name_H-M   'P 1'
_cell_length_a   9.50784190
_cell_length_b   12.74325402
_cell_length_c   15.93361081
_cell_angle_alpha   90.00000000
_cell_angle_beta   90.00000000
_cell_angle_gamma   90.00000000
_symmetry_Int_Tables_number   1
_chemical_formula_structural   Mo
_chemical_formula_sum   Mo121
_cell_volume   1930.52974042
_cell_formula_units_Z   121
loop_
 _symmetry_equiv_pos_site_id
 _symmetry_equiv_pos_as_xyz
  1  'x, y, z'
loop_
 _atom_site_type_symbol
 _atom_site_label
 _atom_site_symmetry_multiplicity
 _atom_site_fract_x
 _atom_site_fract_y
 _atom_site_fract_z
 _atom_site_occupancy
  Mo  Mo0  1  1.45413600  1.51819035  4.66593884  1
  Mo  Mo1  1  1.55468078  4.86542977  1.47085706  1
  Mo  Mo2  1  2.00457049  2.38642417  1.19813705  1
  Mo  Mo3  1  1.02004392  0.50040835  1.94761564  1
  Mo  Mo4  1  3.29106898  3.31908966  3.23657661  1
  Mo  Mo5  1  3.13940782  3.10088188  6.30752145  1
  Mo  Mo6  1  1.56930674  4.69268856  4.80549610  1
  Mo  Mo7  1  -0.11359594  3.15911762  3.14854284  1
  Mo  Mo8  1  0.00714030  3.09800236  6.38518896  1
  Mo  Mo9  1  3.14155257  6.41544374  6.34288985  1
  Mo  Mo10  1  -0.04716430  6.25957253  6.35182628  1
  Mo  Mo11  1  1.61545844  4.64337932  7.93955200  1
  Mo  Mo12  1  3.16291064  0.01205455  -0.03494949  1
  Mo  Mo13  1  1.50450768  1.57631687  7.92442957  1
  Mo  Mo14  1  1.55028207  1.58018932  11.09159991  1
  Mo  Mo15  1  3.07889826  -0.06381724  12.71534936  1
  Mo  Mo16  1  1.48908738  4.78431676  11.01464731  1
  Mo  Mo17  1  3.08196643  3.05557417  9.47889190  1
  Mo  Mo18  1  3.16825264  3.10580684  12.54893317  1
  Mo  Mo19  1  1.58283054  1.66810394  14.21567679  1
  Mo  Mo20  1  1.60020693  4.88527857  14.19134984  1
  Mo  Mo21  1  3.34188748  3.40223818  15.48713229  1
  Mo  Mo22  1  4.67813211  1.51259019  10.99002248  1
  Mo  Mo23  1  4.66886801  4.73349826  7.85970003  1
  Mo  Mo24  1  4.74903772  4.63990404  11.03549898  1
  Mo  Mo25  1  -0.06319179  3.04901086  9.50350681  1
  Mo  Mo26  1  3.25414166  6.22591198  9.46236944  1
  Mo  Mo27  1  3.07494637  -0.07268168  9.51238366  1
  Mo  Mo28  1  3.08195650  12.70681011  6.33727976  1
  Mo  Mo29  1  1.63277525  8.00478794  1.59787353  1
  Mo  Mo30  1  3.22106694  9.48588218  6.34807298  1
  Mo  Mo31  1  -0.01278277  9.52041652  -0.13182129  1
  Mo  Mo32  1  1.65032045  10.97294396  1.43765325  1
  Mo  Mo33  1  -0.11983257  12.65716327  6.37360139  1
  Mo  Mo34  1  4.77656193  11.04453470  4.80716424  1
  Mo  Mo35  1  3.20793039  6.28785137  3.12672802  1
  Mo  Mo36  1  1.58320785  7.90936672  4.80245772  1
  Mo  Mo37  1  3.21077019  9.41362617  3.24791595  1
  Mo  Mo38  1  1.62699636  11.04235024  4.87741451  1
  Mo  Mo39  1  3.18430842  12.60284963  3.30605240  1
  Mo  Mo40  1  1.57202738  7.89291376  7.95377085  1
  Mo  Mo41  1  4.73688418  7.92302953  7.90279348  1
  Mo  Mo42  1  4.77246110  11.12188448  7.96851596  1
  Mo  Mo43  1  -0.12040748  12.67076650  -0.28137643  1
  Mo  Mo44  1  1.58818246  11.04413753  14.18479645  1
  Mo  Mo45  1  1.58197661  7.92802400  10.99975326  1
  Mo  Mo46  1  1.60051474  11.07511716  7.82768774  1
  Mo  Mo47  1  1.58653419  11.12933150  11.02229292  1
  Mo  Mo48  1  4.74673411  11.21055373  14.36461730  1
  Mo  Mo49  1  3.16368513  9.47590316  9.48564387  1
  Mo  Mo50  1  1.56814500  7.97538709  14.22719485  1
  Mo  Mo51  1  4.79326312  7.88768098  11.07174117  1
  Mo  Mo52  1  -0.05833454  9.50372525  9.47329174  1
  Mo  Mo53  1  3.23772842  9.50464868  12.58388454  1
  Mo  Mo54  1  3.20326358  6.37695751  12.70780305  1
  Mo  Mo55  1  3.22238755  6.37865544  15.75453015  1
  Mo  Mo56  1  3.18032675  9.48802692  15.89562646  1
  Mo  Mo57  1  4.81520703  4.77434768  1.40034862  1
  Mo  Mo58  1  4.70555702  1.54816711  1.54589329  1
  Mo  Mo59  1  7.81186033  1.53905195  1.60311623  1
  Mo  Mo60  1  7.91934574  1.49332722  4.79178365  1
  Mo  Mo61  1  6.34849002  6.32894902  6.31121517  1
  Mo  Mo62  1  7.95667023  4.74238504  1.60854760  1
  Mo  Mo63  1  6.31173150  3.25264233  3.06768800  1
  Mo  Mo64  1  7.94053501  4.68459613  4.74093536  1
  Mo  Mo65  1  6.39868297  3.14402498  6.18353344  1
  Mo  Mo66  1  4.72315186  1.56789677  4.74883913  1
  Mo  Mo67  1  4.82025114  4.80218962  4.74157084  1
  Mo  Mo68  1  6.38938908  6.29628140  3.15838284  1
  Mo  Mo69  1  7.88750225  1.53925054  7.93950235  1
  Mo  Mo70  1  7.92479696  4.68984876  7.82560258  1
  Mo  Mo71  1  4.70394846  1.46440297  7.79499034  1
  Mo  Mo72  1  9.43208487  3.31110644  15.76882844  1
  Mo  Mo73  1  7.93775478  4.77138873  14.18668303  1
  Mo  Mo74  1  6.33307964  3.18815109  12.66997216  1
  Mo  Mo75  1  6.30230853  -0.00338302  12.66530535  1
  Mo  Mo76  1  7.78475316  1.62960779  11.11830990  1
  Mo  Mo77  1  9.48891064  6.26531171  9.50896796  1
  Mo  Mo78  1  6.24868995  3.16221558  9.38314301  1
  Mo  Mo79  1  7.90081754  4.76108204  11.06101745  1
  Mo  Mo80  1  7.90062888  1.62375939  14.29759407  1
  Mo  Mo81  1  9.51020913  3.22419469  12.64385792  1
  Mo  Mo82  1  4.63136479  1.53150563  14.11876616  1
  Mo  Mo83  1  4.86892490  4.83115359  14.10198553  1
  Mo  Mo84  1  6.37934056  6.37446524  9.48540557  1
  Mo  Mo85  1  6.23125398  3.19563783  15.84985208  1
  Mo  Mo86  1  4.77437747  11.05158456  1.65175027  1
  Mo  Mo87  1  6.34690132  12.79964969  3.26048653  1
  Mo  Mo88  1  7.96064197  7.92349621  1.62152528  1
  Mo  Mo89  1  9.55992547  9.51026871  6.26477552  1
  Mo  Mo90  1  9.56063046  9.43719849  3.21415610  1
  Mo  Mo91  1  7.88372909  11.08008184  1.52647145  1
  Mo  Mo92  1  6.39243740  9.43981984  3.17595782  1
  Mo  Mo93  1  9.09244092  12.22185980  3.48033265  1
  Mo  Mo94  1  6.38853516  9.42004054  6.41467918  1
  Mo  Mo95  1  7.74555202  10.80662706  4.89349016  1
  Mo  Mo96  1  6.24728990  12.73183211  6.24778637  1
  Mo  Mo97  1  7.94688980  7.81665622  4.87268813  1
  Mo  Mo98  1  4.77612504  7.87513026  1.66748832  1
  Mo  Mo99  1  4.75306904  7.83708093  4.73755937  1
  Mo  Mo100  1  9.57303224  6.27700850  3.29457405  1
  Mo  Mo101  1  7.95229138  7.93938320  7.99091662  1
  Mo  Mo102  1  9.52615569  12.72577520  12.66987286  1
  Mo  Mo103  1  4.78160605  11.09577024  11.14065098  1
  Mo  Mo104  1  6.37876466  6.44791277  12.55737313  1
  Mo  Mo105  1  4.80108747  7.96776133  14.29987782  1
  Mo  Mo106  1  7.96966777  8.00217652  11.13330325  1
  Mo  Mo107  1  7.97992481  11.07462069  7.87732465  1
  Mo  Mo108  1  6.24131243  9.54044405  9.55909140  1
  Mo  Mo109  1  7.96551729  11.11274946  11.03917285  1
  Mo  Mo110  1  9.52185628  9.51745757  12.65885126  1
  Mo  Mo111  1  9.46185311  6.43586845  12.60006941  1
  Mo  Mo112  1  6.38439461  12.67295097  9.51850015  1
  Mo  Mo113  1  9.48474030  12.76092516  9.52318681  1
  Mo  Mo114  1  7.89631953  11.04741422  14.17526426  1
  Mo  Mo115  1  6.47960731  9.53863691  12.71197338  1
  Mo  Mo116  1  7.89627981  7.88192195  14.29848771  1
  Mo  Mo117  1  6.32340844  6.36565789  15.92323011  1
  Mo  Mo118  1  6.38901177  9.53307646  15.84260364  1
  Mo  Mo119  1  6.30775975  12.81960772  15.95907512  1
  Mo  Mo120  1  9.51240352  6.41823389  15.89066178  1
