# generated using pymatgen
data_Mo
_symmetry_space_group_name_H-M   'P 1'
_cell_length_a   9.49195262
_cell_length_b   12.68645334
_cell_length_c   15.91433617
_cell_angle_alpha   90.00000000
_cell_angle_beta   90.00000000
_cell_angle_gamma   90.00000000
_symmetry_Int_Tables_number   1
_chemical_formula_structural   Mo
_chemical_formula_sum   Mo121
_cell_volume   1916.39185395
_cell_formula_units_Z   121
loop_
 _symmetry_equiv_pos_site_id
 _symmetry_equiv_pos_as_xyz
  1  'x, y, z'
loop_
 _atom_site_type_symbol
 _atom_site_label
 _atom_site_symmetry_multiplicity
 _atom_site_fract_x
 _atom_site_fract_y
 _atom_site_fract_z
 _atom_site_occupancy
  Mo  Mo0  1  1.56364700  1.54032291  4.78443592  1
  Mo  Mo1  1  1.65680432  4.93514385  1.58926477  1
  Mo  Mo2  1  2.19371501  2.16648868  1.24692003  1
  Mo  Mo3  1  0.39845161  0.80486261  1.93415141  1
  Mo  Mo4  1  3.16456884  3.21241846  3.39777989  1
  Mo  Mo5  1  3.11615324  3.18740639  6.40096672  1
  Mo  Mo6  1  1.52856654  4.82474915  4.72259582  1
  Mo  Mo7  1  4.69841781  4.70731452  4.83320897  1
  Mo  Mo8  1  -0.05354392  3.13523749  6.23661583  1
  Mo  Mo9  1  4.74649580  1.59636426  4.75847062  1
  Mo  Mo10  1  -0.00403706  6.40512713  6.32161122  1
  Mo  Mo11  1  3.13966599  0.14932974  3.01858728  1
  Mo  Mo12  1  4.69922208  4.67687108  1.59506352  1
  Mo  Mo13  1  4.79870442  1.59357411  1.53868457  1
  Mo  Mo14  1  3.19526051  0.04427316  6.35640372  1
  Mo  Mo15  1  -0.07398362  6.38390807  3.08836094  1
  Mo  Mo16  1  4.71907089  1.70523978  7.97126640  1
  Mo  Mo17  1  1.54560534  1.53745333  7.93651361  1
  Mo  Mo18  1  1.51888541  1.53466317  11.03003783  1
  Mo  Mo19  1  4.86708797  1.55546520  14.21954924  1
  Mo  Mo20  1  1.67231399  4.74321911  11.06677649  1
  Mo  Mo21  1  3.18576804  3.19314556  9.46791995  1
  Mo  Mo22  1  3.15210748  3.23816531  12.55101833  1
  Mo  Mo23  1  1.60284814  1.60360277  14.18549151  1
  Mo  Mo24  1  1.58415114  4.81932771  14.22749273  1
  Mo  Mo25  1  3.34321802  3.31179157  15.48286266  1
  Mo  Mo26  1  4.73343868  1.57155077  11.06767013  1
  Mo  Mo27  1  4.78453521  4.73414367  7.92518420  1
  Mo  Mo28  1  -0.01773385  3.15763814  12.61655216  1
  Mo  Mo29  1  3.12989549  6.40663639  9.46322336  1
  Mo  Mo30  1  3.20286641  6.33614781  12.55399714  1
  Mo  Mo31  1  0.08965285  6.45451580  9.46297513  1
  Mo  Mo32  1  1.58269152  4.78565723  7.86066317  1
  Mo  Mo33  1  -0.03756458  9.43096285  3.17326697  1
  Mo  Mo34  1  1.57465867  7.81472992  1.49716988  1
  Mo  Mo35  1  3.13443321  9.55266710  6.34936380  1
  Mo  Mo36  1  3.19273846  6.25269148  6.33848121  1
  Mo  Mo37  1  1.56166112  10.87682769  1.62058199  1
  Mo  Mo38  1  1.65721143  7.96093986  7.90759929  1
  Mo  Mo39  1  4.66988080  11.07859243  4.64848302  1
  Mo  Mo40  1  3.12785997  6.40357815  3.18634394  1
  Mo  Mo41  1  1.59480535  7.93478590  4.72486964  1
  Mo  Mo42  1  3.18544037  9.50764735  3.04021344  1
  Mo  Mo43  1  1.67119198  11.02626467  4.69714685  1
  Mo  Mo44  1  -0.08967073  9.41543332  6.48942746  1
  Mo  Mo45  1  3.18411976  12.64485086  -0.03196988  1
  Mo  Mo46  1  1.63181210  11.09259284  14.21170504  1
  Mo  Mo47  1  1.67714960  7.89547554  11.10838054  1
  Mo  Mo48  1  1.55984405  11.09855046  8.00360635  1
  Mo  Mo49  1  1.63959673  11.02010846  11.10649396  1
  Mo  Mo50  1  4.74810436  10.96420612  14.19879686  1
  Mo  Mo51  1  3.29030442  9.47678688  9.51335674  1
  Mo  Mo52  1  1.65208787  7.93583841  14.29183503  1
  Mo  Mo53  1  3.26404124  9.46940936  15.82353926  1
  Mo  Mo54  1  0.15245451  9.45711680  9.53018702  1
  Mo  Mo55  1  3.14062914  9.44305682  12.75377602  1
  Mo  Mo56  1  -0.02400812  12.67156085  12.55459291  1
  Mo  Mo57  1  3.20368062  6.33875924  15.88738509  1
  Mo  Mo58  1  3.19444631  12.64306357  12.58249443  1
  Mo  Mo59  1  3.18922346  12.67751847  9.45064285  1
  Mo  Mo60  1  0.08102026  9.50286140  15.89066178  1
  Mo  Mo61  1  7.87566645  4.81332045  7.96550736  1
  Mo  Mo62  1  6.30506889  -0.03369958  6.46298555  1
  Mo  Mo63  1  7.73751916  1.67028840  1.40188767  1
  Mo  Mo64  1  7.80015361  1.54315278  4.76376297  1
  Mo  Mo65  1  6.29884318  6.28072208  6.39766024  1
  Mo  Mo66  1  7.95143745  4.78358199  1.47695369  1
  Mo  Mo67  1  6.33100440  3.14281360  3.20465370  1
  Mo  Mo68  1  7.92437000  4.77007805  4.72372776  1
  Mo  Mo69  1  6.26514291  3.17443863  6.42220564  1
  Mo  Mo70  1  6.29399765  6.32380561  3.15770765  1
  Mo  Mo71  1  9.58346800  3.15645655  3.07582015  1
  Mo  Mo72  1  6.21663795  -0.12489158  3.04074963  1
  Mo  Mo73  1  6.38847558  3.15969352  15.76167930  1
  Mo  Mo74  1  9.55917084  3.15260395  15.82353926  1
  Mo  Mo75  1  7.92753746  4.77671087  14.27306853  1
  Mo  Mo76  1  6.33495629  3.16293049  12.56531662  1
  Mo  Mo77  1  6.34554100  -0.02064742  12.61893521  1
  Mo  Mo78  1  7.92952334  1.57098480  11.06310262  1
  Mo  Mo79  1  9.48379701  3.25227494  9.48219838  1
  Mo  Mo80  1  6.35039646  3.20190326  9.57584225  1
  Mo  Mo81  1  7.97216997  4.79880371  11.06687578  1
  Mo  Mo82  1  7.90950573  1.56375622  14.17665437  1
  Mo  Mo83  1  4.83194794  4.83935525  14.15302248  1
  Mo  Mo84  1  4.82625841  4.82126394  11.06071957  1
  Mo  Mo85  1  6.36416849  -0.13553785  15.70905365  1
  Mo  Mo86  1  7.87466358  1.64634870  7.93109218  1
  Mo  Mo87  1  4.73261455  11.09696176  1.44214133  1
  Mo  Mo88  1  4.71819711  7.88133612  7.98577320  1
  Mo  Mo89  1  7.89350952  7.92550194  1.53483197  1
  Mo  Mo90  1  9.54716623  12.60245246  6.50352716  1
  Mo  Mo91  1  4.74777669  7.89275489  4.73058896  1
  Mo  Mo92  1  7.95332403  11.10699043  1.52648137  1
  Mo  Mo93  1  6.27302682  9.50569127  3.08814250  1
  Mo  Mo94  1  9.19096011  12.22642731  3.75063982  1
  Mo  Mo95  1  6.10144736  9.42761665  6.38347118  1
  Mo  Mo96  1  7.66745754  10.96341177  5.02429965  1
  Mo  Mo97  1  4.79703628  7.90136365  1.47803599  1
  Mo  Mo98  1  7.85699924  7.91259377  4.66876871  1
  Mo  Mo99  1  9.54463425  6.33551233  -0.04025097  1
  Mo  Mo100  1  6.39192107  6.27573754  -0.03125378  1
  Mo  Mo101  1  6.37590500  6.30269577  9.53280837  1
  Mo  Mo102  1  4.75874864  11.03986790  11.07740091  1
  Mo  Mo103  1  6.42489650  6.27189488  12.76152092  1
  Mo  Mo104  1  4.80511879  7.88270637  14.26135188  1
  Mo  Mo105  1  8.00727028  7.85931278  11.04155589  1
  Mo  Mo106  1  7.80029262  11.01772541  8.03326537  1
  Mo  Mo107  1  6.43417053  9.47893162  9.53381124  1
  Mo  Mo108  1  7.90024163  11.07829455  11.15842455  1
  Mo  Mo109  1  9.50965308  9.45670970  12.66510677  1
  Mo  Mo110  1  9.57044067  6.31507770  12.69191606  1
  Mo  Mo111  1  6.23168094  12.70591647  9.46120770  1
  Mo  Mo112  1  9.39043117  12.67027004  9.47840536  1
  Mo  Mo113  1  7.84876779  11.10430950  14.19065478  1
  Mo  Mo114  1  6.20993562  9.49051919  12.68854007  1
  Mo  Mo115  1  7.99012227  7.98854350  14.26532362  1
  Mo  Mo116  1  4.78860625  7.92176850  11.11235228  1
  Mo  Mo117  1  6.35627464  9.48999294  15.88996672  1
  Mo  Mo118  1  7.86647185  7.90106577  7.87116844  1
  Mo  Mo119  1  9.50479762  12.55131621  15.58940477  1
  Mo  Mo120  1  4.66741832  11.08742957  7.86952017  1
