# generated using pymatgen
data_Mo
_symmetry_space_group_name_H-M   'P 1'
_cell_length_a   15.93652786
_cell_length_b   12.70490360
_cell_length_c   9.51292542
_cell_angle_alpha   90.00000000
_cell_angle_beta   90.00000000
_cell_angle_gamma   90.00000000
_symmetry_Int_Tables_number   1
_chemical_formula_structural   Mo
_chemical_formula_sum   Mo121
_cell_volume   1926.10151429
_cell_formula_units_Z   121
loop_
 _symmetry_equiv_pos_site_id
 _symmetry_equiv_pos_as_xyz
  1  'x, y, z'
loop_
 _atom_site_type_symbol
 _atom_site_label
 _atom_site_symmetry_multiplicity
 _atom_site_fract_x
 _atom_site_fract_y
 _atom_site_fract_z
 _atom_site_occupancy
  Mo  Mo0  1  15.22339836  0.00000000  0.00000000  1
  Mo  Mo1  1  1.59365355  1.76857921  1.73618962  1
  Mo  Mo2  1  3.90043426  0.00000000  0.00000000  1
  Mo  Mo3  1  4.89110711  1.66915646  1.65890935  1
  Mo  Mo4  1  6.53635365  0.00000000  0.00000000  1
  Mo  Mo5  1  7.99610968  1.60482408  1.59977997  1
  Mo  Mo6  1  9.56192127  0.00000000  0.00000000  1
  Mo  Mo7  1  11.12772294  1.60482408  1.59977997  1
  Mo  Mo8  1  12.58747897  0.00000000  0.00000000  1
  Mo  Mo9  1  14.23273544  1.66915646  1.65890935  1
  Mo  Mo10  1  15.90628067  3.18025724  0.00000000  1
  Mo  Mo11  1  1.59365355  4.78778211  1.57625729  1
  Mo  Mo12  1  3.21755194  3.18025724  0.00000000  1
  Mo  Mo13  1  4.79495112  4.77953081  1.58272131  1
  Mo  Mo14  1  6.41577141  3.20118835  0.00000000  1
  Mo  Mo15  1  7.97760133  4.77575765  1.58739804  1
  Mo  Mo16  1  9.56192127  3.18858798  0.00000000  1
  Mo  Mo17  1  11.14624121  4.77575765  1.58739804  1
  Mo  Mo18  1  12.70806121  3.20118835  0.00000000  1
  Mo  Mo19  1  14.32888150  4.77953081  1.58272131  1
  Mo  Mo20  1  15.93025017  6.35245183  0.00000000  1
  Mo  Mo21  1  1.59365355  7.91712156  1.57625729  1
  Mo  Mo22  1  3.19358245  6.35245183  0.00000000  1
  Mo  Mo23  1  4.79495112  7.92537286  1.58272131  1
  Mo  Mo24  1  6.38213071  6.35245183  0.00000000  1
  Mo  Mo25  1  7.97760133  7.92914602  1.58739804  1
  Mo  Mo26  1  9.56192127  6.35245183  0.00000000  1
  Mo  Mo27  1  11.14624121  7.92914602  1.58739804  1
  Mo  Mo28  1  12.74171183  6.35245183  0.00000000  1
  Mo  Mo29  1  14.32888150  7.92537286  1.58272131  1
  Mo  Mo30  1  15.90628067  9.52464643  0.00000000  1
  Mo  Mo31  1  1.59365355  10.93632446  1.73618962  1
  Mo  Mo32  1  3.21755194  9.52464643  0.00000000  1
  Mo  Mo33  1  4.89110711  11.03574721  1.65890935  1
  Mo  Mo34  1  6.41577141  9.50371532  0.00000000  1
  Mo  Mo35  1  7.99610968  11.10007959  1.59977997  1
  Mo  Mo36  1  9.56192127  9.51631569  0.00000000  1
  Mo  Mo37  1  11.12772294  11.10007959  1.59977997  1
  Mo  Mo38  1  12.70806121  9.50371532  0.00000000  1
  Mo  Mo39  1  14.23273544  11.03574721  1.65890935  1
  Mo  Mo40  1  15.91474050  0.00000000  3.16127229  1
  Mo  Mo41  1  1.59365355  1.57914674  4.75646489  1
  Mo  Mo42  1  3.20909212  0.00000000  3.16127229  1
  Mo  Mo43  1  4.79582490  1.58941371  4.75646489  1
  Mo  Mo44  1  6.41322949  0.00000000  3.19036534  1
  Mo  Mo45  1  7.98189082  1.59825084  4.75646489  1
  Mo  Mo46  1  9.56192127  0.00000000  3.17714935  1
  Mo  Mo47  1  11.14194180  1.59825084  4.75646489  1
  Mo  Mo48  1  12.71060313  0.00000000  3.19036534  1
  Mo  Mo49  1  14.32800772  1.58941371  4.75646489  1
  Mo  Mo50  1  15.90782966  3.22265564  3.20483243  1
  Mo  Mo51  1  1.59365355  4.78508132  4.75646489  1
  Mo  Mo52  1  3.21600296  3.22265564  3.20483243  1
  Mo  Mo53  1  4.79834696  4.78244011  4.75646489  1
  Mo  Mo54  1  6.40158235  3.20504094  3.18968021  1
  Mo  Mo55  1  7.98090781  4.77549949  4.75646489  1
  Mo  Mo56  1  9.56192127  3.18989866  3.17775504  1
  Mo  Mo57  1  11.14292481  4.77549949  4.75646489  1
  Mo  Mo58  1  12.72225027  3.20504094  3.18968021  1
  Mo  Mo59  1  14.32548566  4.78244011  4.75646489  1
  Mo  Mo60  1  15.92735079  6.35245183  3.16501566  1
  Mo  Mo61  1  1.59365355  7.91982235  4.75646489  1
  Mo  Mo62  1  3.19648183  6.35245183  3.16501566  1
  Mo  Mo63  1  4.79834696  7.92246356  4.75646489  1
  Mo  Mo64  1  6.38509960  6.35245183  3.16856045  1
  Mo  Mo65  1  7.98090781  7.92940418  4.75646489  1
  Mo  Mo66  1  9.56192127  6.35245183  3.16847108  1
  Mo  Mo67  1  11.14292481  7.92940418  4.75646489  1
  Mo  Mo68  1  12.73873302  6.35245183  3.16856045  1
  Mo  Mo69  1  14.32548566  7.92246356  4.75646489  1
  Mo  Mo70  1  15.90782966  9.48224803  3.20483243  1
  Mo  Mo71  1  1.59365355  11.12575693  4.75646489  1
  Mo  Mo72  1  3.21600296  9.48224803  3.20483243  1
  Mo  Mo73  1  4.79582490  11.11548996  4.75646489  1
  Mo  Mo74  1  6.40158235  9.49986273  3.18968021  1
  Mo  Mo75  1  7.98189082  11.10665283  4.75646489  1
  Mo  Mo76  1  9.56192127  9.51500501  3.17775504  1
  Mo  Mo77  1  11.14194180  11.10665283  4.75646489  1
  Mo  Mo78  1  12.72225027  9.49986273  3.18968021  1
  Mo  Mo79  1  14.32800772  11.11548996  4.75646489  1
  Mo  Mo80  1  15.91474050  0.00000000  6.35165749  1
  Mo  Mo81  1  1.59365355  1.76857921  7.77673023  1
  Mo  Mo82  1  3.20909212  0.00000000  6.35165749  1
  Mo  Mo83  1  4.89110711  1.66915646  7.85402043  1
  Mo  Mo84  1  6.41322949  0.00000000  6.32256444  1
  Mo  Mo85  1  7.99610968  1.60482408  7.91314981  1
  Mo  Mo86  1  9.56192127  0.00000000  6.33577050  1
  Mo  Mo87  1  11.12772294  1.60482408  7.91314981  1
  Mo  Mo88  1  12.71060313  0.00000000  6.32256444  1
  Mo  Mo89  1  14.23273544  1.66915646  7.85402043  1
  Mo  Mo90  1  15.90782966  3.22265564  6.30809735  1
  Mo  Mo91  1  1.59365355  4.78778211  7.93666255  1
  Mo  Mo92  1  3.21600296  3.22265564  6.30809735  1
  Mo  Mo93  1  4.79495112  4.77953081  7.93019853  1
  Mo  Mo94  1  6.40158235  3.20504094  6.32323964  1
  Mo  Mo95  1  7.97760133  4.77575765  7.92553173  1
  Mo  Mo96  1  9.56192127  3.18989866  6.33517474  1
  Mo  Mo97  1  11.14624121  4.77575765  7.92553173  1
  Mo  Mo98  1  12.72225027  3.20504094  6.32323964  1
  Mo  Mo99  1  14.32888150  4.77953081  7.93019853  1
  Mo  Mo100  1  15.92735079  6.35245183  6.34790418  1
  Mo  Mo101  1  1.59365355  7.91712156  7.93666255  1
  Mo  Mo102  1  3.19648183  6.35245183  6.34790418  1
  Mo  Mo103  1  4.79495112  7.92537286  7.93019853  1
  Mo  Mo104  1  6.38509960  6.35245183  6.34435940  1
  Mo  Mo105  1  7.97760133  7.92914602  7.92553173  1
  Mo  Mo106  1  9.56192127  6.35245183  6.34445869  1
  Mo  Mo107  1  11.14624121  7.92914602  7.92553173  1
  Mo  Mo108  1  12.73873302  6.35245183  6.34435940  1
  Mo  Mo109  1  14.32888150  7.92537286  7.93019853  1
  Mo  Mo110  1  15.90782966  9.48224803  6.30809735  1
  Mo  Mo111  1  1.59365355  10.93632446  7.77673023  1
  Mo  Mo112  1  3.21600296  9.48224803  6.30809735  1
  Mo  Mo113  1  4.89110711  11.03574721  7.85402043  1
  Mo  Mo114  1  6.40158235  9.49986273  6.32323964  1
  Mo  Mo115  1  7.99610968  11.10007959  7.91314981  1
  Mo  Mo116  1  9.56192127  9.51500501  6.33517474  1
  Mo  Mo117  1  11.12772294  11.10007959  7.91314981  1
  Mo  Mo118  1  12.72225027  9.49986273  6.32323964  1
  Mo  Mo119  1  14.23273544  11.03574721  7.85402043  1
  Mo  Mo120  1  1.59365355  0.00000000  0.00000000  1
