# generated using pymatgen
data_Mo
_symmetry_space_group_name_H-M   'P 1'
_cell_length_a   9.54340353
_cell_length_b   12.70234396
_cell_length_c   15.88333741
_cell_angle_alpha   90.36679686
_cell_angle_beta   89.76542212
_cell_angle_gamma   90.24270122
_symmetry_Int_Tables_number   1
_chemical_formula_structural   Mo
_chemical_formula_sum   Mo121
_cell_volume   1925.36259600
_cell_formula_units_Z   121
loop_
 _symmetry_equiv_pos_site_id
 _symmetry_equiv_pos_as_xyz
  1  'x, y, z'
loop_
 _atom_site_type_symbol
 _atom_site_label
 _atom_site_symmetry_multiplicity
 _atom_site_fract_x
 _atom_site_fract_y
 _atom_site_fract_z
 _atom_site_occupancy
  Mo  Mo0  1  4.76459704  1.53406741  1.49379390  1
  Mo  Mo1  1  1.57962335  4.81973482  1.46030214  1
  Mo  Mo2  1  1.20917851  2.32299537  0.71404067  1
  Mo  Mo3  1  1.92972292  0.79795376  2.22519110  1
  Mo  Mo4  1  3.16336739  3.13221896  3.05984380  1
  Mo  Mo5  1  3.17933381  3.11480285  6.25624619  1
  Mo  Mo6  1  1.57852119  4.70128739  4.64266441  1
  Mo  Mo7  1  1.57776656  1.52459480  4.74772704  1
  Mo  Mo8  1  1.59090311  1.51847830  7.84304848  1
  Mo  Mo9  1  1.58730868  1.52693813  10.98854300  1
  Mo  Mo10  1  1.58358517  4.69696812  7.81922792  1
  Mo  Mo11  1  1.58410149  4.70662939  10.98369747  1
  Mo  Mo12  1  3.17404146  3.10788208  9.40964450  1
  Mo  Mo13  1  3.18678084  3.11950937  12.55768094  1
  Mo  Mo14  1  1.60115022  1.52358200  14.08560207  1
  Mo  Mo15  1  1.58796402  4.70873442  14.14720387  1
  Mo  Mo16  1  3.39772032  3.19982802  15.65746066  1
  Mo  Mo17  1  9.52801248  6.29819777  15.74704341  1
  Mo  Mo18  1  1.56510661  7.90286299  1.45704531  1
  Mo  Mo19  1  9.52172720  6.29647006  3.07455912  1
  Mo  Mo20  1  9.53748510  9.42695138  15.75433156  1
  Mo  Mo21  1  1.54811747  10.98850328  1.45344095  1
  Mo  Mo22  1  9.51055666  9.43482537  3.07640599  1
  Mo  Mo23  1  3.19459525  6.29699632  15.74001342  1
  Mo  Mo24  1  3.16873917  6.30708456  3.06306092  1
  Mo  Mo25  1  3.18243177  9.43735736  15.74298230  1
  Mo  Mo26  1  3.17541171  9.43397145  3.06890931  1
  Mo  Mo27  1  4.74618799  7.89011368  1.46571365  1
  Mo  Mo28  1  3.56003569  12.35749496  3.33445039  1
  Mo  Mo29  1  1.57363594  7.87301531  4.64500774  1
  Mo  Mo30  1  9.53531057  6.26453722  6.24554234  1
  Mo  Mo31  1  1.56795634  11.03806076  4.65213702  1
  Mo  Mo32  1  9.53033596  9.43562965  6.25257233  1
  Mo  Mo33  1  3.16495609  6.27611486  6.23483848  1
  Mo  Mo34  1  3.15211741  9.42956281  6.25900656  1
  Mo  Mo35  1  4.76025791  7.84416057  4.66091458  1
  Mo  Mo36  1  3.17437906  12.61636350  6.25974133  1
  Mo  Mo37  1  1.57594948  7.86614418  7.81914849  1
  Mo  Mo38  1  1.58318799  7.88247799  10.98023212  1
  Mo  Mo39  1  1.57041883  11.04195307  7.81186033  1
  Mo  Mo40  1  1.57110395  11.05096893  10.97604193  1
  Mo  Mo41  1  3.16736892  6.28500164  9.40125418  1
  Mo  Mo42  1  3.16193756  9.45706715  9.40189959  1
  Mo  Mo43  1  4.75478682  7.85337502  7.83001122  1
  Mo  Mo44  1  4.74795542  7.88040276  10.97864342  1
  Mo  Mo45  1  3.15839277  12.63136677  9.39270499  1
  Mo  Mo46  1  3.16518446  9.46450425  12.57211824  1
  Mo  Mo47  1  3.17015907  6.29363026  12.56384708  1
  Mo  Mo48  1  9.55001596  6.30122623  12.55626104  1
  Mo  Mo49  1  1.58739804  7.87696720  14.15281396  1
  Mo  Mo50  1  9.53749503  9.45356209  12.58195824  1
  Mo  Mo51  1  1.57776656  11.05151505  14.15477997  1
  Mo  Mo52  1  4.76158844  7.88453337  14.15540553  1
  Mo  Mo53  1  3.16275177  12.62562760  12.54424650  1
  Mo  Mo54  1  3.16092476  12.63194268  15.72512930  1
  Mo  Mo55  1  4.76664249  4.75269173  1.48714122  1
  Mo  Mo56  1  6.34942338  12.61206408  15.74073826  1
  Mo  Mo57  1  7.92865948  1.54524788  1.48069706  1
  Mo  Mo58  1  6.35002907  12.63472290  3.05007330  1
  Mo  Mo59  1  6.34948295  3.09490440  15.76401270  1
  Mo  Mo60  1  7.88161414  4.77482429  1.51050502  1
  Mo  Mo61  1  6.34902620  3.11914198  3.07365555  1
  Mo  Mo62  1  9.53628365  3.10235142  3.09167735  1
  Mo  Mo63  1  6.35944211  3.12008527  6.25970161  1
  Mo  Mo64  1  4.81791774  1.55297293  4.73081733  1
  Mo  Mo65  1  4.75578969  4.70255835  4.65461937  1
  Mo  Mo66  1  7.92931482  1.53016517  4.70650031  1
  Mo  Mo67  1  7.94639333  4.68976933  4.66595870  1
  Mo  Mo68  1  9.53306653  3.10345358  6.27040547  1
  Mo  Mo69  1  4.77219301  1.51883576  7.85369276  1
  Mo  Mo70  1  4.76747656  1.51113057  10.99898870  1
  Mo  Mo71  1  4.76155865  4.69406874  7.82315995  1
  Mo  Mo72  1  4.75855998  4.70021502  10.97334114  1
  Mo  Mo73  1  7.95368149  1.51460585  7.85267996  1
  Mo  Mo74  1  7.94871680  1.50613610  10.99817449  1
  Mo  Mo75  1  7.94715789  4.68687988  7.82937574  1
  Mo  Mo76  1  6.35523206  3.10253015  9.41273253  1
  Mo  Mo77  1  7.94022720  4.69853696  10.96821759  1
  Mo  Mo78  1  9.53710779  3.09658246  9.41972280  1
  Mo  Mo79  1  9.51998956  3.11210206  12.55155452  1
  Mo  Mo80  1  4.79316383  1.49672306  14.14643931  1
  Mo  Mo81  1  4.79463338  4.73882040  14.11917326  1
  Mo  Mo82  1  7.90234666  1.47212802  14.11936192  1
  Mo  Mo83  1  6.33945429  3.10460539  12.54928069  1
  Mo  Mo84  1  7.82726078  4.83396360  14.02003846  1
  Mo  Mo85  1  9.12426455  3.37843749  15.46939844  1
  Mo  Mo86  1  4.78916229  11.00723007  1.42545006  1
  Mo  Mo87  1  6.34659351  6.30143474  15.75905794  1
  Mo  Mo88  1  7.92795450  7.89386698  1.46784846  1
  Mo  Mo89  1  6.34248275  6.29540762  3.07930536  1
  Mo  Mo90  1  6.36307626  9.43687082  15.73880203  1
  Mo  Mo91  1  7.90420345  11.03227194  1.44781100  1
  Mo  Mo92  1  6.35736687  9.43011885  3.05723238  1
  Mo  Mo93  1  9.30743159  12.53138797  3.15905804  1
  Mo  Mo94  1  6.37245951  9.39993357  6.28478320  1
  Mo  Mo95  1  7.90380628  10.99116435  4.69559787  1
  Mo  Mo96  1  4.86626383  10.90461999  4.78571680  1
  Mo  Mo97  1  7.94199462  7.84743726  4.66186780  1
  Mo  Mo98  1  6.35195537  6.26735716  6.24241458  1
  Mo  Mo99  1  6.35555973  12.62541908  6.26246198  1
  Mo  Mo100  1  9.50926584  12.60982998  6.25672280  1
  Mo  Mo101  1  4.75774578  11.02989882  7.84500456  1
  Mo  Mo102  1  4.75101367  11.04157575  10.98577271  1
  Mo  Mo103  1  7.95290700  7.84888694  7.83703128  1
  Mo  Mo104  1  6.34975105  6.27870642  9.40161164  1
  Mo  Mo105  1  7.94677065  7.87563666  10.98554433  1
  Mo  Mo106  1  7.93860871  11.02785337  7.84027818  1
  Mo  Mo107  1  6.35030709  9.44900451  9.41289140  1
  Mo  Mo108  1  7.93613630  11.03290741  10.99086647  1
  Mo  Mo109  1  9.53909366  6.27137855  9.41411271  1
  Mo  Mo110  1  9.53312611  9.44401997  9.41401342  1
  Mo  Mo111  1  6.33987133  12.62494247  9.39950661  1
  Mo  Mo112  1  9.52109172  12.62003737  9.40404433  1
  Mo  Mo113  1  7.94467555  11.02835976  14.16191919  1
  Mo  Mo114  1  6.34913543  9.46231979  12.57391545  1
  Mo  Mo115  1  7.94532096  7.88720437  14.15720274  1
  Mo  Mo116  1  4.75279102  11.04124808  14.15026211  1
  Mo  Mo117  1  6.32590071  6.33267253  12.52764460  1
  Mo  Mo118  1  6.33577050  12.60836043  12.55346096  1
  Mo  Mo119  1  9.51683202  12.61361307  12.55682701  1
  Mo  Mo120  1  9.53640280  12.60173754  15.75358686  1
