# generated using pymatgen
data_Mo
_symmetry_space_group_name_H-M   'P 1'
_cell_length_a   9.54209053
_cell_length_b   12.70157373
_cell_length_c   15.88493337
_cell_angle_alpha   89.59974872
_cell_angle_beta   90.32431613
_cell_angle_gamma   90.33680271
_symmetry_Int_Tables_number   1
_chemical_formula_structural   Mo
_chemical_formula_sum   Mo121
_cell_volume   1925.13640071
_cell_formula_units_Z   121
loop_
 _symmetry_equiv_pos_site_id
 _symmetry_equiv_pos_as_xyz
  1  'x, y, z'
loop_
 _atom_site_type_symbol
 _atom_site_label
 _atom_site_symmetry_multiplicity
 _atom_site_fract_x
 _atom_site_fract_y
 _atom_site_fract_z
 _atom_site_occupancy
  Mo  Mo0  1  4.75317827  1.53959807  1.53349151  1
  Mo  Mo1  1  1.54733305  4.81161259  1.57803465  1
  Mo  Mo2  1  2.04318580  0.81560817  0.82419707  1
  Mo  Mo3  1  3.09930311  12.68774572  3.21850516  1
  Mo  Mo4  1  3.10352309  3.21462278  15.85421107  1
  Mo  Mo5  1  3.28676957  3.22169249  3.21840587  1
  Mo  Mo6  1  1.07216317  2.30478491  2.28718014  1
  Mo  Mo7  1  3.11986683  3.17914515  6.35409018  1
  Mo  Mo8  1  1.52626293  4.77672080  4.77569807  1
  Mo  Mo9  1  1.53689728  1.59127050  4.81405522  1
  Mo  Mo10  1  1.52899350  1.59057544  7.92412176  1
  Mo  Mo11  1  1.53699658  1.58658384  11.07434267  1
  Mo  Mo12  1  1.52065284  4.77033621  7.93630509  1
  Mo  Mo13  1  9.47724363  3.15558276  9.49064827  1
  Mo  Mo14  1  1.52296638  4.76385234  11.10008951  1
  Mo  Mo15  1  4.70180372  4.75817274  11.09013036  1
  Mo  Mo16  1  3.11404822  3.17156904  9.50706152  1
  Mo  Mo17  1  4.69096085  4.75997988  7.94046550  1
  Mo  Mo18  1  4.69573688  4.77043551  14.25975325  1
  Mo  Mo19  1  3.12215058  3.18073385  12.66063855  1
  Mo  Mo20  1  1.53041340  1.58698101  14.18482624  1
  Mo  Mo21  1  1.51676052  4.77478457  14.27002021  1
  Mo  Mo22  1  9.47175269  6.32820432  12.66725151  1
  Mo  Mo23  1  3.10421814  6.34301894  12.68188740  1
  Mo  Mo24  1  1.53769163  7.91131288  1.57859070  1
  Mo  Mo25  1  1.52748424  11.01167843  1.57942476  1
  Mo  Mo26  1  3.12498045  6.35298802  3.17543157  1
  Mo  Mo27  1  3.11793060  9.49681441  3.17527270  1
  Mo  Mo28  1  3.09988894  9.52442798  6.34941345  1
  Mo  Mo29  1  3.10309613  6.35250148  6.35229296  1
  Mo  Mo30  1  9.46734405  9.50831262  6.33338745  1
  Mo  Mo31  1  1.51214337  11.10448822  4.77232209  1
  Mo  Mo32  1  3.09370294  12.68988054  6.37405814  1
  Mo  Mo33  1  4.68960053  11.09679296  4.77049508  1
  Mo  Mo34  1  1.52099043  7.93881722  4.76951208  1
  Mo  Mo35  1  9.47924936  6.36112017  6.36086201  1
  Mo  Mo36  1  4.69141760  7.94019741  4.76076430  1
  Mo  Mo37  1  1.50607652  11.11560912  7.94291805  1
  Mo  Mo38  1  4.68488408  11.10471660  7.93301847  1
  Mo  Mo39  1  1.51796198  7.94642312  7.94245137  1
  Mo  Mo40  1  9.47371870  6.33127249  9.50010103  1
  Mo  Mo41  1  1.51258026  7.93339579  11.10128104  1
  Mo  Mo42  1  9.46714546  9.50415221  9.50020033  1
  Mo  Mo43  1  1.50928371  11.10884722  11.10654360  1
  Mo  Mo44  1  3.10436709  6.34750701  9.51618661  1
  Mo  Mo45  1  3.09836975  9.52086334  9.51640505  1
  Mo  Mo46  1  4.69926180  11.09380423  11.07128442  1
  Mo  Mo47  1  4.68097191  7.94282869  7.94087260  1
  Mo  Mo48  1  4.69400917  7.91817407  11.08671466  1
  Mo  Mo49  1  3.09384196  12.69613604  9.52573866  1
  Mo  Mo50  1  9.45674941  12.67992138  9.50945450  1
  Mo  Mo51  1  3.11584543  12.68069587  12.65582281  1
  Mo  Mo52  1  4.69745466  7.90709290  14.25711204  1
  Mo  Mo53  1  1.50872767  7.93982009  14.27399196  1
  Mo  Mo54  1  9.46902211  9.50006132  12.66404432  1
  Mo  Mo55  1  1.50362397  11.10264136  14.26753787  1
  Mo  Mo56  1  3.09280930  9.49032061  12.65501853  1
  Mo  Mo57  1  3.09833003  6.37289640  15.85757713  1
  Mo  Mo58  1  3.52195656  12.37710546  15.52834909  1
  Mo  Mo59  1  3.10968923  9.49931661  15.84956413  1
  Mo  Mo60  1  4.73314080  4.75523365  1.54975581  1
  Mo  Mo61  1  9.05320999  3.47227001  3.48428454  1
  Mo  Mo62  1  7.90031114  1.55788796  1.55455170  1
  Mo  Mo63  1  6.28461440  12.66784727  3.17772525  1
  Mo  Mo64  1  6.28663999  3.18532122  15.83751981  1
  Mo  Mo65  1  7.85487435  4.77869674  1.52345292  1
  Mo  Mo66  1  6.28152636  3.15783673  3.15243515  1
  Mo  Mo67  1  9.47196121  3.16502559  15.79950026  1
  Mo  Mo68  1  9.46813840  12.63765206  3.16122264  1
  Mo  Mo69  1  6.26998844  3.16235459  6.36306633  1
  Mo  Mo70  1  4.72643848  1.56071783  4.76113169  1
  Mo  Mo71  1  4.71228913  4.78284722  4.78095071  1
  Mo  Mo72  1  7.84098317  1.52994672  4.78957933  1
  Mo  Mo73  1  9.45611394  3.17017893  6.36089180  1
  Mo  Mo74  1  7.74344699  4.90441246  4.90646784  1
  Mo  Mo75  1  4.70788049  1.57381467  7.91295122  1
  Mo  Mo76  1  4.71962693  1.58367453  11.05897200  1
  Mo  Mo77  1  7.88850512  1.56664567  7.91156111  1
  Mo  Mo78  1  7.90051965  1.57613814  11.05866419  1
  Mo  Mo79  1  7.87290608  4.75794436  7.94567842  1
  Mo  Mo80  1  6.29521896  3.16468799  9.50000174  1
  Mo  Mo81  1  7.88685685  4.74779655  11.08288192  1
  Mo  Mo82  1  7.88103824  4.75542230  14.24506771  1
  Mo  Mo83  1  6.30366885  3.18180622  12.65442277  1
  Mo  Mo84  1  9.47618119  3.16183826  12.64180254  1
  Mo  Mo85  1  4.76758578  1.62215083  14.18104315  1
  Mo  Mo86  1  7.88211061  1.59029742  14.21099012  1
  Mo  Mo87  1  6.29064152  6.33060723  12.67073672  1
  Mo  Mo88  1  6.27455595  6.35682076  15.83873119  1
  Mo  Mo89  1  4.71785951  7.89725289  1.56712228  1
  Mo  Mo90  1  4.76182675  11.01909566  1.60900435  1
  Mo  Mo91  1  9.47327188  9.47937844  3.15780694  1
  Mo  Mo92  1  7.89880187  7.90009269  1.56368671  1
  Mo  Mo93  1  6.27548931  6.35980950  3.15662535  1
  Mo  Mo94  1  7.88260708  11.04223109  1.58194682  1
  Mo  Mo95  1  6.29623176  9.49538458  3.17718907  1
  Mo  Mo96  1  9.46214106  6.35264049  3.16653485  1
  Mo  Mo97  1  6.26737701  12.67071686  6.36184502  1
  Mo  Mo98  1  6.28117884  9.52204493  6.34586866  1
  Mo  Mo99  1  7.87458415  11.08219679  4.75488612  1
  Mo  Mo100  1  7.87387916  7.94458619  4.75914582  1
  Mo  Mo101  1  6.24610831  6.39393673  6.39057068  1
  Mo  Mo102  1  9.44795199  12.66997216  6.35427884  1
  Mo  Mo103  1  7.86890455  11.09421133  7.92600834  1
  Mo  Mo104  1  7.87869491  7.93462703  7.92983115  1
  Mo  Mo105  1  6.28507115  6.33910677  9.51181769  1
  Mo  Mo106  1  7.89154351  7.90920785  11.07517673  1
  Mo  Mo107  1  6.28689815  9.51271133  9.50420186  1
  Mo  Mo108  1  7.88149499  11.09186800  11.07624910  1
  Mo  Mo109  1  6.27587655  12.68697123  9.51618661  1
  Mo  Mo110  1  7.85993833  11.06962622  14.23510856  1
  Mo  Mo111  1  6.32765820  9.45817924  12.62571696  1
  Mo  Mo112  1  7.88020417  7.91216680  14.25495736  1
  Mo  Mo113  1  4.83069684  10.94652192  14.10864813  1
  Mo  Mo114  1  9.45181452  12.67292118  12.66246555  1
  Mo  Mo115  1  6.30197093  12.69056566  12.65286385  1
  Mo  Mo116  1  6.29644027  9.49270365  15.86034742  1
  Mo  Mo117  1  9.28558698  12.63225049  15.79932153  1
  Mo  Mo118  1  9.45375075  6.35495404  15.84076671  1
  Mo  Mo119  1  9.44712786  9.49884000  15.84136247  1
  Mo  Mo120  1  6.28961880  12.69642399  15.86375319  1
