# generated using pymatgen
data_Mo
_symmetry_space_group_name_H-M   'P 1'
_cell_length_a   9.52845912
_cell_length_b   12.71193342
_cell_length_c   15.92805770
_cell_angle_alpha   90.05996013
_cell_angle_beta   89.99594852
_cell_angle_gamma   89.99869793
_symmetry_Int_Tables_number   1
_chemical_formula_structural   Mo
_chemical_formula_sum   Mo121
_cell_volume   1929.28712539
_cell_formula_units_Z   121
loop_
 _symmetry_equiv_pos_site_id
 _symmetry_equiv_pos_as_xyz
  1  'x, y, z'
loop_
 _atom_site_type_symbol
 _atom_site_label
 _atom_site_symmetry_multiplicity
 _atom_site_fract_x
 _atom_site_fract_y
 _atom_site_fract_z
 _atom_site_occupancy
  Mo  Mo0  1  4.71586370  1.55360841  1.48275244  1
  Mo  Mo1  1  1.56226682  4.70509034  1.48201767  1
  Mo  Mo2  1  1.54007468  1.65158148  0.29162552  1
  Mo  Mo3  1  1.58494549  1.45091889  2.56161793  1
  Mo  Mo4  1  3.24467898  3.27081307  3.15512601  1
  Mo  Mo5  1  3.18402047  3.19035541  6.31382660  1
  Mo  Mo6  1  1.56656623  4.76429916  4.71296433  1
  Mo  Mo7  1  1.55821563  1.57667433  4.96647101  1
  Mo  Mo8  1  1.57160042  1.55772909  7.88299432  1
  Mo  Mo9  1  1.57789564  1.55468078  10.98202934  1
  Mo  Mo10  1  1.57060748  4.75202646  7.87132731  1
  Mo  Mo11  1  1.58407171  4.74384466  11.01324727  1
  Mo  Mo12  1  3.17086406  3.15513594  9.43339554  1
  Mo  Mo13  1  3.20569628  3.18131968  12.55406665  1
  Mo  Mo14  1  1.57807437  1.53265744  13.85778267  1
  Mo  Mo15  1  1.57758783  4.74779655  14.17113364  1
  Mo  Mo16  1  3.31403561  3.28746462  15.71140691  1
  Mo  Mo17  1  -0.01087266  6.33306971  15.81197154  1
  Mo  Mo18  1  1.57204724  7.91060789  1.48586033  1
  Mo  Mo19  1  -0.02041478  6.33261296  3.07968268  1
  Mo  Mo20  1  -0.00546115  9.47631027  15.81400706  1
  Mo  Mo21  1  1.56939610  11.11103168  1.48498655  1
  Mo  Mo22  1  9.51850015  9.48240690  3.07501588  1
  Mo  Mo23  1  3.15303092  6.33126256  15.81412622  1
  Mo  Mo24  1  3.15097554  6.33882874  3.08189693  1
  Mo  Mo25  1  3.16201699  9.47786918  15.81408650  1
  Mo  Mo26  1  3.15419265  9.48152319  3.08431969  1
  Mo  Mo27  1  4.74213681  7.90832414  1.48546316  1
  Mo  Mo28  1  3.29656985  12.52496367  3.19934148  1
  Mo  Mo29  1  1.57212668  7.90986319  4.67377312  1
  Mo  Mo30  1  9.51613696  6.33891811  6.27605528  1
  Mo  Mo31  1  1.56701305  11.05906137  4.71596300  1
  Mo  Mo32  1  -0.01274931  9.48762975  6.27554888  1
  Mo  Mo33  1  3.16454898  6.33808404  6.27362259  1
  Mo  Mo34  1  3.16108363  9.48940710  6.28115898  1
  Mo  Mo35  1  4.74426170  7.91918687  4.67977045  1
  Mo  Mo36  1  3.18364315  12.64699560  6.31396561  1
  Mo  Mo37  1  1.58167873  7.91435126  7.85397078  1
  Mo  Mo38  1  1.58548168  7.91175970  11.03337410  1
  Mo  Mo39  1  1.57296074  11.08197835  7.86505195  1
  Mo  Mo40  1  1.58630581  11.07344902  11.01447851  1
  Mo  Mo41  1  3.16725970  6.33491657  9.44283837  1
  Mo  Mo42  1  3.17247262  9.49241570  9.44266957  1
  Mo  Mo43  1  4.75558117  7.91807478  7.85738648  1
  Mo  Mo44  1  4.76030755  7.91401367  11.02597672  1
  Mo  Mo45  1  3.17190664  -0.04138560  9.44286816  1
  Mo  Mo46  1  3.17439891  9.47968625  12.62092108  1
  Mo  Mo47  1  3.17562023  6.32894902  12.60900584  1
  Mo  Mo48  1  9.52512304  6.33513502  12.61520176  1
  Mo  Mo49  1  1.58530295  7.90207857  14.22070105  1
  Mo  Mo50  1  -0.00328662  9.47926922  12.61808128  1
  Mo  Mo51  1  1.57816373  11.06192103  14.17872961  1
  Mo  Mo52  1  4.75468753  7.90125443  14.21217172  1
  Mo  Mo53  1  3.21078012  12.62554817  12.55433474  1
  Mo  Mo54  1  3.25538283  12.55393757  15.74218795  1
  Mo  Mo55  1  4.77402994  4.77878611  1.48473831  1
  Mo  Mo56  1  6.32740004  12.66838346  15.80838704  1
  Mo  Mo57  1  7.94137900  1.54960687  1.48389432  1
  Mo  Mo58  1  6.33107391  -0.03346197  3.09212418  1
  Mo  Mo59  1  6.33019019  3.12558614  15.80560682  1
  Mo  Mo60  1  7.87588489  4.77698889  1.49162930  1
  Mo  Mo61  1  6.32360702  3.14105610  3.07908692  1
  Mo  Mo62  1  9.41150129  3.25334731  3.17160876  1
  Mo  Mo63  1  6.32643689  3.15898854  6.27928233  1
  Mo  Mo64  1  4.75709044  1.56215759  4.71276574  1
  Mo  Mo65  1  4.76462683  4.77543991  4.69435669  1
  Mo  Mo66  1  7.88935905  1.56229660  4.71385797  1
  Mo  Mo67  1  7.89859336  4.77331502  4.69900364  1
  Mo  Mo68  1  9.47174276  3.19075258  6.32242543  1
  Mo  Mo69  1  4.75071578  1.56154197  7.86905349  1
  Mo  Mo70  1  4.76501407  1.54904090  11.01355508  1
  Mo  Mo71  1  4.75764648  4.75556132  7.85882624  1
  Mo  Mo72  1  4.76535167  4.75403219  11.00537328  1
  Mo  Mo73  1  7.91357677  1.56219731  7.87026487  1
  Mo  Mo74  1  7.92613742  1.55446233  11.01101316  1
  Mo  Mo75  1  7.91822372  4.75728903  7.86697825  1
  Mo  Mo76  1  6.33903726  3.14849319  9.43894606  1
  Mo  Mo77  1  7.92017980  4.75507478  11.01671262  1
  Mo  Mo78  1  9.51093397  3.15906797  9.44111066  1
  Mo  Mo79  1  9.47861388  3.18929296  12.55859444  1
  Mo  Mo80  1  4.77197456  1.54323222  14.17776646  1
  Mo  Mo81  1  4.78841759  4.77346396  14.17422168  1
  Mo  Mo82  1  7.90539497  1.54784937  14.17788561  1
  Mo  Mo83  1  6.33842164  3.14289303  12.59702109  1
  Mo  Mo84  1  7.88378867  4.78351248  14.17277199  1
  Mo  Mo85  1  9.33456855  3.30679710  15.71032461  1
  Mo  Mo86  1  4.78171527  11.04251904  1.49007038  1
  Mo  Mo87  1  6.33865001  6.33365554  15.80811895  1
  Mo  Mo88  1  7.92831195  7.91106464  1.48374538  1
  Mo  Mo89  1  6.33120299  6.33865001  3.08600768  1
  Mo  Mo90  1  6.33825284  9.47384779  15.81307370  1
  Mo  Mo91  1  7.88421563  11.04126794  1.48535394  1
  Mo  Mo92  1  6.33392364  9.48246648  3.08998936  1
  Mo  Mo93  1  9.36222184  12.53804065  3.18366301  1
  Mo  Mo94  1  6.34203593  9.49246535  6.28264838  1
  Mo  Mo95  1  7.89032219  11.04409781  4.71406649  1
  Mo  Mo96  1  4.78192379  11.04554750  4.72136457  1
  Mo  Mo97  1  7.93339579  7.91341790  4.67727818  1
  Mo  Mo98  1  6.33916634  6.34446862  6.27570775  1
  Mo  Mo99  1  6.33223564  12.68015969  6.28416757  1
  Mo  Mo100  1  9.47711455  12.64903112  6.31136411  1
  Mo  Mo101  1  4.75698121  11.07787752  7.86671016  1
  Mo  Mo102  1  4.76865815  11.06357923  11.01650410  1
  Mo  Mo103  1  7.93495470  7.91654565  7.85755528  1
  Mo  Mo104  1  6.34123165  6.33367540  9.44105108  1
  Mo  Mo105  1  7.93721860  7.91105471  11.02939242  1
  Mo  Mo106  1  7.91911736  11.07982368  7.86766338  1
  Mo  Mo107  1  6.35261070  9.49640731  9.43934323  1
  Mo  Mo108  1  7.92593884  11.06941770  11.01829139  1
  Mo  Mo109  1  -0.00961163  6.33787552  9.44712786  1
  Mo  Mo110  1  -0.00568953  9.49497748  9.44291781  1
  Mo  Mo111  1  6.33901740  12.67228570  9.43864818  1
  Mo  Mo112  1  -0.01525151  12.66753946  9.43491474  1
  Mo  Mo113  1  7.90349846  11.04211194  14.18924481  1
  Mo  Mo114  1  6.34731835  9.48012315  12.61219317  1
  Mo  Mo115  1  7.93733775  7.91223631  14.21328381  1
  Mo  Mo116  1  4.77980883  11.03844800  14.19476554  1
  Mo  Mo117  1  6.34682188  6.33570099  12.60668237  1
  Mo  Mo118  1  6.34516368  12.66016194  12.60476600  1
  Mo  Mo119  1  9.48022244  12.62505170  12.55679722  1
  Mo  Mo120  1  9.39437313  12.53929175  15.74426319  1
