# generated using pymatgen
data_Mo
_symmetry_space_group_name_H-M   'P 1'
_cell_length_a   9.54023121
_cell_length_b   12.70694829
_cell_length_c   15.89170394
_cell_angle_alpha   89.65726613
_cell_angle_beta   90.03818884
_cell_angle_gamma   90.04219643
_symmetry_Int_Tables_number   1
_chemical_formula_structural   Mo
_chemical_formula_sum   Mo121
_cell_volume   1926.47175104
_cell_formula_units_Z   121
loop_
 _symmetry_equiv_pos_site_id
 _symmetry_equiv_pos_as_xyz
  1  'x, y, z'
loop_
 _atom_site_type_symbol
 _atom_site_label
 _atom_site_symmetry_multiplicity
 _atom_site_fract_x
 _atom_site_fract_y
 _atom_site_fract_z
 _atom_site_occupancy
  Mo  Mo0  1  4.74046868  1.56289237  1.56486831  1
  Mo  Mo1  1  1.57649560  4.86099134  1.58694129  1
  Mo  Mo2  1  1.60858731  0.78109369  0.77145227  1
  Mo  Mo3  1  3.14826482  0.00946269  3.13647866  1
  Mo  Mo4  1  3.14145327  3.13386724  0.00529235  1
  Mo  Mo5  1  3.46418750  3.34689189  3.35989936  1
  Mo  Mo6  1  1.50314736  2.36075676  2.35558356  1
  Mo  Mo7  1  3.17210523  3.19681943  6.37245951  1
  Mo  Mo8  1  1.56486831  4.80077965  4.78264863  1
  Mo  Mo9  1  1.57856091  1.58859950  4.86622412  1
  Mo  Mo10  1  1.56558322  1.59117120  7.93840019  1
  Mo  Mo11  1  1.55825535  1.58433980  11.07139364  1
  Mo  Mo12  1  1.56051925  4.77382142  7.93557032  1
  Mo  Mo13  1  -0.02297656  3.17820186  9.51765615  1
  Mo  Mo14  1  1.56221717  4.76036713  11.10886708  1
  Mo  Mo15  1  4.73817499  4.76764536  11.11117069  1
  Mo  Mo16  1  3.15135285  3.17323718  9.51545183  1
  Mo  Mo17  1  4.73532526  4.77064402  7.95414817  1
  Mo  Mo18  1  4.73450113  4.76322679  14.29777280  1
  Mo  Mo19  1  3.15792609  3.19224199  12.67790572  1
  Mo  Mo20  1  1.54472162  1.59575857  14.14649888  1
  Mo  Mo21  1  1.55853337  4.75643510  14.30581558  1
  Mo  Mo22  1  -0.01698915  6.33291084  12.70757467  1
  Mo  Mo23  1  3.14548460  6.33828263  12.71210246  1
  Mo  Mo24  1  1.56728115  7.92871906  1.58236385  1
  Mo  Mo25  1  1.55748086  10.99028064  1.57751832  1
  Mo  Mo26  1  3.16935480  6.38475207  3.18992844  1
  Mo  Mo27  1  3.16243403  9.52021793  3.17474644  1
  Mo  Mo28  1  3.14050005  9.55092946  6.34496509  1
  Mo  Mo29  1  3.14395547  6.37963844  6.35803214  1
  Mo  Mo30  1  -0.02828877  9.54163558  6.35181636  1
  Mo  Mo31  1  1.56377608  11.14013465  4.75286053  1
  Mo  Mo32  1  3.16857038  -0.01015774  6.34435940  1
  Mo  Mo33  1  4.73536498  11.12404908  4.75950327  1
  Mo  Mo34  1  1.55678580  7.96824787  4.75637552  1
  Mo  Mo35  1  -0.02445603  6.38520882  6.37015590  1
  Mo  Mo36  1  4.74244462  7.97557574  4.76402114  1
  Mo  Mo37  1  1.55789789  11.12579665  7.94900476  1
  Mo  Mo38  1  4.74021051  11.10982030  7.94182582  1
  Mo  Mo39  1  1.55685531  7.95526026  7.93875765  1
  Mo  Mo40  1  -0.02749442  6.35333555  9.52360385  1
  Mo  Mo41  1  1.55795747  7.92015001  11.11126998  1
  Mo  Mo42  1  9.51085454  9.51760651  9.52403081  1
  Mo  Mo43  1  1.54758128  11.10405133  11.10839047  1
  Mo  Mo44  1  3.14457109  6.35317668  9.51722919  1
  Mo  Mo45  1  3.13814679  9.52049595  9.52096263  1
  Mo  Mo46  1  4.73375642  11.10059591  11.08727070  1
  Mo  Mo47  1  4.72493915  7.95815963  7.94104140  1
  Mo  Mo48  1  4.72863287  7.92171885  11.10224419  1
  Mo  Mo49  1  3.14739103  12.69923400  9.53636308  1
  Mo  Mo50  1  -0.02811997  0.00261142  9.49713215  1
  Mo  Mo51  1  3.15213727  -0.02375105  12.63323350  1
  Mo  Mo52  1  4.74398367  7.91637685  14.27958219  1
  Mo  Mo53  1  1.55649785  7.92441964  14.29158680  1
  Mo  Mo54  1  9.50756792  9.49308097  12.67755819  1
  Mo  Mo55  1  1.54322229  11.08249468  14.25213742  1
  Mo  Mo56  1  3.13594247  9.49529522  12.67781636  1
  Mo  Mo57  1  3.16265247  6.37660999  15.88062319  1
  Mo  Mo58  1  3.46077180  12.49523515  15.65363785  1
  Mo  Mo59  1  3.15555297  9.51127157  15.85470754  1
  Mo  Mo60  1  4.78526998  4.78865590  1.57224583  1
  Mo  Mo61  1  9.17829023  3.39327196  3.38620225  1
  Mo  Mo62  1  7.92770626  1.55574322  1.55316159  1
  Mo  Mo63  1  6.34228416  -0.01411956  3.13391688  1
  Mo  Mo64  1  6.32692343  3.13839503  -0.00821159  1
  Mo  Mo65  1  7.88826682  4.79452415  1.55784825  1
  Mo  Mo66  1  6.34016921  3.15945522  3.17084420  1
  Mo  Mo67  1  9.51330709  3.12044273  -0.00953219  1
  Mo  Mo68  1  -0.01226277  0.00774491  3.13144447  1
  Mo  Mo69  1  6.32590071  3.17008957  6.38256761  1
  Mo  Mo70  1  4.78746437  1.55006362  4.80108747  1
  Mo  Mo71  1  4.80291447  4.84851012  4.84527315  1
  Mo  Mo72  1  7.89832526  1.55619004  4.79678805  1
  Mo  Mo73  1  9.50140178  3.19770314  6.36905374  1
  Mo  Mo74  1  7.84821175  4.85707917  4.86054452  1
  Mo  Mo75  1  4.74542343  1.57605871  7.93306812  1
  Mo  Mo76  1  4.73477915  1.59667207  11.07891017  1
  Mo  Mo77  1  7.92588919  1.58171845  7.93290925  1
  Mo  Mo78  1  7.91725064  1.59880689  11.07488878  1
  Mo  Mo79  1  7.91946489  4.77106106  7.95295664  1
  Mo  Mo80  1  6.32506664  3.17649401  9.51940372  1
  Mo  Mo81  1  7.92087486  4.76042671  11.11297783  1
  Mo  Mo82  1  7.92577004  4.75752733  14.29544932  1
  Mo  Mo83  1  6.32289211  3.20178411  12.67985188  1
  Mo  Mo84  1  -0.03981676  3.18896530  12.67732982  1
  Mo  Mo85  1  4.76733755  1.62231963  14.21830807  1
  Mo  Mo86  1  7.87633172  1.61852661  14.21254903  1
  Mo  Mo87  1  6.33536339  6.33824291  12.69871767  1
  Mo  Mo88  1  6.33827270  6.32044948  -0.01958071  1
  Mo  Mo89  1  4.74841217  7.92439978  1.57258343  1
  Mo  Mo90  1  4.77714776  11.05444421  1.59274997  1
  Mo  Mo91  1  -0.03776138  9.52216409  3.17939339  1
  Mo  Mo92  1  7.92895736  7.91635700  1.58301919  1
  Mo  Mo93  1  6.33194769  6.38744293  3.17665288  1
  Mo  Mo94  1  7.89186125  11.05041289  1.59230315  1
  Mo  Mo95  1  6.33734927  9.52515283  3.18275944  1
  Mo  Mo96  1  9.50053792  6.37895332  3.19438673  1
  Mo  Mo97  1  6.33014055  12.67691278  6.36574726  1
  Mo  Mo98  1  6.32883980  9.54194339  6.34808291  1
  Mo  Mo99  1  7.93507385  11.11970002  4.76264095  1
  Mo  Mo100  1  7.91608890  7.96892307  4.76753613  1
  Mo  Mo101  1  6.31518692  6.40803643  6.39433391  1
  Mo  Mo102  1  -0.02814976  -0.00669239  6.34560057  1
  Mo  Mo103  1  7.92103373  11.11017775  7.93730796  1
  Mo  Mo104  1  7.92138126  7.95156653  7.94546990  1
  Mo  Mo105  1  6.32983274  6.34984041  9.52730750  1
  Mo  Mo106  1  7.92470759  7.91270299  11.10089379  1
  Mo  Mo107  1  6.32740004  9.51869874  9.51857959  1
  Mo  Mo108  1  7.91393423  11.10146970  11.08626784  1
  Mo  Mo109  1  6.32865114  -0.00140004  9.49628816  1
  Mo  Mo110  1  7.84416057  11.02924348  14.18692134  1
  Mo  Mo111  1  6.33126256  9.47071011  12.64526789  1
  Mo  Mo112  1  7.92589912  7.90715247  14.28328585  1
  Mo  Mo113  1  4.79713558  11.01919496  14.18580925  1
  Mo  Mo114  1  9.48604105  12.69393172  12.66710257  1
  Mo  Mo115  1  6.32398434  0.00187665  12.61842881  1
  Mo  Mo116  1  6.33510523  9.50568134  15.86839021  1
  Mo  Mo117  1  9.19629218  12.52946168  15.67847120  1
  Mo  Mo118  1  9.50838213  6.32240557  -0.00983007  1
  Mo  Mo119  1  9.49230648  9.51061623  15.85446924  1
  Mo  Mo120  1  6.31336984  12.71175493  15.87410952  1
