# generated using pymatgen
data_Mo
_symmetry_space_group_name_H-M   'P 1'
_cell_length_a   15.93663475
_cell_length_b   9.56198085
_cell_length_c   12.74930780
_cell_angle_alpha   90.00000000
_cell_angle_beta   90.00000000
_cell_angle_gamma   90.00000000
_symmetry_Int_Tables_number   1
_chemical_formula_structural   Mo
_chemical_formula_sum   Mo122
_cell_volume   1942.81342173
_cell_formula_units_Z   122
loop_
 _symmetry_equiv_pos_site_id
 _symmetry_equiv_pos_as_xyz
  1  'x, y, z'
loop_
 _atom_site_type_symbol
 _atom_site_label
 _atom_site_symmetry_multiplicity
 _atom_site_fract_x
 _atom_site_fract_y
 _atom_site_fract_z
 _atom_site_occupancy
  Mo  Mo0  1  1.83957419  1.31315884  4.69778233  1
  Mo  Mo1  1  3.46200304  2.82926403  2.94339218  1
  Mo  Mo2  1  0.27891494  2.80017098  2.87851369  1
  Mo  Mo3  1  1.89965679  1.27437474  1.33513253  1
  Mo  Mo4  1  1.85507393  4.50589730  4.46113571  1
  Mo  Mo5  1  0.26167756  2.95747202  6.09785292  1
  Mo  Mo6  1  2.27988206  4.28005384  1.02128509  1
  Mo  Mo7  1  3.43607746  2.84434674  6.07744807  1
  Mo  Mo8  1  5.26823442  4.28989384  1.25022651  1
  Mo  Mo9  1  5.13309572  1.27539746  4.50883639  1
  Mo  Mo10  1  5.07101732  1.27411657  1.40191746  1
  Mo  Mo11  1  6.61929366  2.89186869  2.92799173  1
  Mo  Mo12  1  6.78331688  2.92912368  5.97709196  1
  Mo  Mo13  1  4.98848442  4.40291983  4.50982933  1
  Mo  Mo14  1  2.14929102  1.38750995  7.87378980  1
  Mo  Mo15  1  1.88972742  1.32667271  10.88576412  1
  Mo  Mo16  1  1.92322911  4.36965645  10.83502505  1
  Mo  Mo17  1  3.57173248  2.93237058  9.34033751  1
  Mo  Mo18  1  1.82286306  4.41037679  7.67400100  1
  Mo  Mo19  1  0.30106736  2.78727274  12.39880113  1
  Mo  Mo20  1  0.31598425  2.93591537  9.22400504  1
  Mo  Mo21  1  3.56902176  2.80006176  12.32879909  1
  Mo  Mo22  1  5.16754070  1.29349870  10.84852899  1
  Mo  Mo23  1  5.10022952  4.52377016  10.83006037  1
  Mo  Mo24  1  6.70120101  2.87818602  12.41399306  1
  Mo  Mo25  1  4.94976981  4.38136317  7.71236807  1
  Mo  Mo26  1  5.19871891  1.29172134  7.63612046  1
  Mo  Mo27  1  6.59374539  2.86530763  9.30151368  1
  Mo  Mo28  1  3.45932211  6.07668351  6.04358893  1
  Mo  Mo29  1  1.91037058  7.67928342  1.34489310  1
  Mo  Mo30  1  3.39020379  9.33151030  2.89540355  1
  Mo  Mo31  1  0.93431078  8.39199356  5.40804984  1
  Mo  Mo32  1  2.38410070  7.12597935  3.97057531  1
  Mo  Mo33  1  0.24677953  9.39884134  2.80488743  1
  Mo  Mo34  1  0.22276139  5.93729505  6.27844826  1
  Mo  Mo35  1  3.55504121  9.22263479  6.07241388  1
  Mo  Mo36  1  0.73542356  5.34158265  2.38316734  1
  Mo  Mo37  1  3.77346744  5.83823968  2.63091499  1
  Mo  Mo38  1  6.63721616  9.21172241  6.09215347  1
  Mo  Mo39  1  5.19687205  7.74632651  1.26747383  1
  Mo  Mo40  1  5.04674002  7.69500161  4.39535365  1
  Mo  Mo41  1  6.57080855  6.07239403  6.05989295  1
  Mo  Mo42  1  6.62709814  6.12268627  2.85433568  1
  Mo  Mo43  1  6.62148805  9.29410638  2.93754378  1
  Mo  Mo44  1  1.89972630  7.58057558  7.73337861  1
  Mo  Mo45  1  1.92942504  7.65730973  10.85160709  1
  Mo  Mo46  1  3.50252479  6.04784863  9.19337294  1
  Mo  Mo47  1  0.30326671  9.18841819  12.47217916  1
  Mo  Mo48  1  0.29613147  6.07895734  12.53483346  1
  Mo  Mo49  1  0.32269352  9.23285211  9.41374532  1
  Mo  Mo50  1  3.60541290  9.23776714  12.45946957  1
  Mo  Mo51  1  0.35425004  6.02865516  9.31142319  1
  Mo  Mo52  1  3.52025864  9.24439996  9.29064103  1
  Mo  Mo53  1  3.59147206  6.13748103  12.38609154  1
  Mo  Mo54  1  5.08918806  7.58965102  7.75832118  1
  Mo  Mo55  1  5.16774922  7.74712086  10.85974918  1
  Mo  Mo56  1  6.64834698  9.27119933  9.25678188  1
  Mo  Mo57  1  6.67401440  6.04934796  9.30399603  1
  Mo  Mo58  1  6.67526550  6.11433567  12.45073172  1
  Mo  Mo59  1  6.67929682  9.34023822  12.46999469  1
  Mo  Mo60  1  8.30701803  1.32264139  1.38944617  1
  Mo  Mo61  1  11.42085773  1.29455121  1.30402383  1
  Mo  Mo62  1  8.21936157  1.22496620  4.45073966  1
  Mo  Mo63  1  11.41629022  1.39515556  4.53362009  1
  Mo  Mo64  1  9.77166923  3.04055104  2.93926156  1
  Mo  Mo65  1  11.38908375  4.55591152  1.41757607  1
  Mo  Mo66  1  8.14163448  4.52300560  4.50035671  1
  Mo  Mo67  1  9.84201880  3.00929339  6.12868361  1
  Mo  Mo68  1  11.28949220  4.68759480  4.48539316  1
  Mo  Mo69  1  8.28557059  4.48726981  1.22286118  1
  Mo  Mo70  1  14.60441152  4.46889055  4.50435825  1
  Mo  Mo71  1  14.57899234  1.34830881  4.47929652  1
  Mo  Mo72  1  12.96100191  2.90618684  2.93023577  1
  Mo  Mo73  1  14.58564502  1.31024954  1.22138170  1
  Mo  Mo74  1  14.55754491  4.41126050  1.30363658  1
  Mo  Mo75  1  12.87272984  3.01246086  6.15580071  1
  Mo  Mo76  1  12.78525211  -0.04065480  6.37319428  1
  Mo  Mo77  1  11.36078506  4.58741741  7.72236694  1
  Mo  Mo78  1  11.26089562  1.51179584  7.80209976  1
  Mo  Mo79  1  11.40139617  1.36419579  10.84942263  1
  Mo  Mo80  1  9.80104030  3.05548481  9.30094771  1
  Mo  Mo81  1  8.28134068  1.32738763  7.73762838  1
  Mo  Mo82  1  8.26718141  4.50538097  7.61992566  1
  Mo  Mo83  1  8.22217158  1.25995729  10.79590334  1
  Mo  Mo84  1  9.81915147  2.87557460  12.62658082  1
  Mo  Mo85  1  11.33655740  4.68319609  10.94285798  1
  Mo  Mo86  1  8.23816779  4.52377016  10.87980650  1
  Mo  Mo87  1  12.85803437  3.01460560  9.52357406  1
  Mo  Mo88  1  13.01839366  2.98299050  12.48796685  1
  Mo  Mo89  1  15.89125754  0.42083638  6.81170494  1
  Mo  Mo90  1  14.30792061  1.69853745  7.94064423  1
  Mo  Mo91  1  14.46827989  4.56303088  7.70705586  1
  Mo  Mo92  1  14.61185855  4.46585216  10.83730881  1
  Mo  Mo93  1  14.55496327  1.30326919  10.85071345  1
  Mo  Mo94  1  11.46583776  7.79098880  1.32961181  1
  Mo  Mo95  1  9.85235527  6.14885016  6.11583501  1
  Mo  Mo96  1  9.78463699  6.09713801  2.83896502  1
  Mo  Mo97  1  11.35353662  7.84407120  4.59959081  1
  Mo  Mo98  1  9.78152909  9.24254317  2.90357542  1
  Mo  Mo99  1  8.24636945  7.65932539  4.55649736  1
  Mo  Mo100  1  9.89814951  9.30946711  6.13190073  1
  Mo  Mo101  1  8.18905714  7.67952172  1.33328567  1
  Mo  Mo102  1  15.41117263  6.91328237  3.55796045  1
  Mo  Mo103  1  14.52656528  7.73286229  1.22145121  1
  Mo  Mo104  1  13.03070607  6.14762884  6.10533967  1
  Mo  Mo105  1  12.99833634  6.23263416  2.96686520  1
  Mo  Mo106  1  14.27555087  8.38145850  4.98975538  1
  Mo  Mo107  1  12.95305842  9.42235409  2.90273142  1
  Mo  Mo108  1  9.81469318  9.31973407  12.42848994  1
  Mo  Mo109  1  8.29641346  7.63337995  7.65232519  1
  Mo  Mo110  1  9.76569175  9.25910536  9.31025153  1
  Mo  Mo111  1  9.73400714  6.02837714  9.26115081  1
  Mo  Mo112  1  11.34807547  7.63650770  10.92478653  1
  Mo  Mo113  1  8.19349557  7.68833900  10.90423274  1
  Mo  Mo114  1  11.38719717  7.76660228  7.78897314  1
  Mo  Mo115  1  9.81465346  6.14160172  12.49591034  1
  Mo  Mo116  1  13.01174098  6.10541910  12.47029258  1
  Mo  Mo117  1  14.65783152  7.80037205  7.71250708  1
  Mo  Mo118  1  12.90291512  9.28890339  9.35274922  1
  Mo  Mo119  1  12.98810909  9.32504628  12.42650407  1
  Mo  Mo120  1  14.54404097  7.74172921  10.82618791  1
  Mo  Mo121  1  12.96348426  6.16206614  9.21193093  1
