# generated using pymatgen
data_Mo
_symmetry_space_group_name_H-M   'P 1'
_cell_length_a   15.93663475
_cell_length_b   9.56198085
_cell_length_c   12.74930780
_cell_angle_alpha   90.00000000
_cell_angle_beta   90.00000000
_cell_angle_gamma   90.00000000
_symmetry_Int_Tables_number   1
_chemical_formula_structural   Mo
_chemical_formula_sum   Mo122
_cell_volume   1942.81342173
_cell_formula_units_Z   122
loop_
 _symmetry_equiv_pos_site_id
 _symmetry_equiv_pos_as_xyz
  1  'x, y, z'
loop_
 _atom_site_type_symbol
 _atom_site_label
 _atom_site_symmetry_multiplicity
 _atom_site_fract_x
 _atom_site_fract_y
 _atom_site_fract_z
 _atom_site_occupancy
  Mo  Mo0  1  0.81604904  2.49997642  5.56277917  1
  Mo  Mo1  1  3.98327497  2.33703550  2.36977262  1
  Mo  Mo2  1  0.80032985  2.48244116  2.50576524  1
  Mo  Mo3  1  2.26788738  0.75424567  0.95301870  1
  Mo  Mo4  1  2.44276340  3.90216197  3.94459016  1
  Mo  Mo5  1  2.43828526  0.79890698  3.93795734  1
  Mo  Mo6  1  2.46666339  3.94632780  0.72602045  1
  Mo  Mo7  1  3.96845043  2.29784429  5.49907235  1
  Mo  Mo8  1  5.51086844  0.74973476  3.89930231  1
  Mo  Mo9  1  5.60930819  3.97321652  0.72913827  1
  Mo  Mo10  1  5.58860546  0.80943409  0.70310149  1
  Mo  Mo11  1  5.61958508  3.82579521  3.90900331  1
  Mo  Mo12  1  7.21615786  2.44889975  5.63792462  1
  Mo  Mo13  1  7.18042207  2.32168470  2.36360649  1
  Mo  Mo14  1  2.34443288  0.75609551  7.06428819  1
  Mo  Mo15  1  1.61561731  1.66871956  11.18106351  1
  Mo  Mo16  1  2.47903538  3.95397341  10.28712256  1
  Mo  Mo17  1  3.93234725  2.30262031  8.68187151  1
  Mo  Mo18  1  0.29442163  2.87639874  12.73778973  1
  Mo  Mo19  1  0.87656059  2.45468857  8.55439829  1
  Mo  Mo20  1  4.08582548  2.37980128  11.87363689  1
  Mo  Mo21  1  2.46222496  3.93275435  7.03310997  1
  Mo  Mo22  1  2.78589255  0.18731156  9.89404869  1
  Mo  Mo23  1  5.64588798  3.91268710  7.13221499  1
  Mo  Mo24  1  5.63443942  0.73384678  7.19380686  1
  Mo  Mo25  1  7.17904189  2.40381049  8.73729724  1
  Mo  Mo26  1  5.63480680  0.70807709  10.29437099  1
  Mo  Mo27  1  5.58645078  3.94929668  10.34580512  1
  Mo  Mo28  1  7.24919287  2.50258784  11.95207889  1
  Mo  Mo29  1  2.42272594  7.20074748  0.71842647  1
  Mo  Mo30  1  0.90474807  8.81019865  5.40269791  1
  Mo  Mo31  1  2.38816181  7.20077727  3.84093749  1
  Mo  Mo32  1  0.81298285  8.69926776  2.35464027  1
  Mo  Mo33  1  0.81496078  5.63312874  5.53967353  1
  Mo  Mo34  1  0.76714988  5.51478061  2.32832744  1
  Mo  Mo35  1  4.03361687  5.54923551  2.36060782  1
  Mo  Mo36  1  4.04895774  8.73643338  2.31091133  1
  Mo  Mo37  1  4.11634836  5.36039880  5.41657916  1
  Mo  Mo38  1  4.13780572  8.77434371  5.45739879  1
  Mo  Mo39  1  7.14388200  8.76764138  2.39328536  1
  Mo  Mo40  1  7.22741776  8.68810715  5.52174110  1
  Mo  Mo41  1  5.55395196  7.15467522  3.95726003  1
  Mo  Mo42  1  7.16781177  5.53483793  5.54569073  1
  Mo  Mo43  1  7.18211999  5.56418914  2.29694071  1
  Mo  Mo44  1  5.53490744  7.19167204  0.87157803  1
  Mo  Mo45  1  1.41616610  8.12838871  8.13494209  1
  Mo  Mo46  1  2.44859194  6.93304181  10.38333813  1
  Mo  Mo47  1  0.81005468  8.75700703  12.05008175  1
  Mo  Mo48  1  0.70024183  5.53515567  12.06557156  1
  Mo  Mo49  1  0.10375891  9.57597133  9.45607422  1
  Mo  Mo50  1  4.01008427  8.71016028  11.90441792  1
  Mo  Mo51  1  0.89920252  5.54745816  8.73704900  1
  Mo  Mo52  1  2.79502757  6.82079031  6.67706272  1
  Mo  Mo53  1  4.13509500  5.45913643  8.61901861  1
  Mo  Mo54  1  5.62568171  7.07916238  7.00921992  1
  Mo  Mo55  1  4.02534570  5.54524391  12.01006639  1
  Mo  Mo56  1  7.23088311  5.59238854  11.93639049  1
  Mo  Mo57  1  7.24938153  8.74776279  11.93112792  1
  Mo  Mo58  1  4.23790367  8.48224158  8.56760435  1
  Mo  Mo59  1  5.63653451  7.07811980  10.36874196  1
  Mo  Mo60  1  7.23112142  8.69103631  8.80956317  1
  Mo  Mo61  1  7.20433199  5.53646635  8.59472145  1
  Mo  Mo62  1  11.91305647  0.81010432  0.87420236  1
  Mo  Mo63  1  10.27371791  2.50307438  2.48191490  1
  Mo  Mo64  1  8.76807828  0.83170765  3.95222584  1
  Mo  Mo65  1  11.88445990  0.81978943  4.05527282  1
  Mo  Mo66  1  8.65833891  4.01282477  3.99995631  1
  Mo  Mo67  1  10.28771832  2.29636481  5.60896066  1
  Mo  Mo68  1  8.68373823  4.04270224  0.82905452  1
  Mo  Mo69  1  8.81101286  0.90885585  0.77919520  1
  Mo  Mo70  1  11.77543544  4.08007638  0.84574777  1
  Mo  Mo71  1  11.90630450  4.05320751  4.05351532  1
  Mo  Mo72  1  13.50453549  2.32916151  5.53693303  1
  Mo  Mo73  1  15.08340421  4.03202817  3.98304660  1
  Mo  Mo74  1  15.09075194  0.72946396  4.07062362  1
  Mo  Mo75  1  13.44535646  2.51799822  2.54333797  1
  Mo  Mo76  1  15.00555797  0.70096767  1.06153874  1
  Mo  Mo77  1  14.68374717  4.34308546  1.10861388  1
  Mo  Mo78  1  10.35275567  2.38397162  8.72854946  1
  Mo  Mo79  1  8.73668162  4.07852740  10.31760571  1
  Mo  Mo80  1  8.63818229  0.77100645  7.19507782  1
  Mo  Mo81  1  8.76448385  4.00226985  7.15553907  1
  Mo  Mo82  1  8.77237769  0.89300858  10.27798754  1
  Mo  Mo83  1  10.36844407  2.47961129  11.93827707  1
  Mo  Mo84  1  11.95297253  4.04872936  10.42692805  1
  Mo  Mo85  1  11.97620725  3.94303125  7.20565259  1
  Mo  Mo86  1  11.89220480  0.86767281  10.36427374  1
  Mo  Mo87  1  11.95346900  0.75609254  7.20245534  1
  Mo  Mo88  1  14.71095363  1.11202958  11.03649192  1
  Mo  Mo89  1  13.26424480  2.64128125  12.27518051  1
  Mo  Mo90  1  15.20662766  0.82622962  7.13795416  1
  Mo  Mo91  1  13.56182794  2.35117492  8.87249550  1
  Mo  Mo92  1  15.13831361  4.04203697  10.38641623  1
  Mo  Mo93  1  15.15420060  4.08157571  7.16849690  1
  Mo  Mo94  1  10.23995806  5.73501398  5.53225630  1
  Mo  Mo95  1  10.34193266  5.71840215  2.38366381  1
  Mo  Mo96  1  10.36755043  8.90008922  2.37872891  1
  Mo  Mo97  1  8.76743287  7.24199408  3.92928900  1
  Mo  Mo98  1  10.34193266  8.81965141  5.63140103  1
  Mo  Mo99  1  8.79642662  7.24411896  0.85024379  1
  Mo  Mo100  1  11.93857495  7.18908048  0.88785425  1
  Mo  Mo101  1  11.93390815  7.20265392  4.07227189  1
  Mo  Mo102  1  13.44257624  8.77687570  2.56905503  1
  Mo  Mo103  1  15.11229867  7.18492007  3.95091517  1
  Mo  Mo104  1  15.01767179  7.14890626  0.83154878  1
  Mo  Mo105  1  13.45915828  5.65127962  5.67282635  1
  Mo  Mo106  1  13.34219033  5.78309198  2.54231524  1
  Mo  Mo107  1  13.61256701  8.76854496  5.65271938  1
  Mo  Mo108  1  8.61807532  7.15271913  7.11161155  1
  Mo  Mo109  1  10.46019143  8.82613529  8.80439990  1
  Mo  Mo110  1  10.37440170  5.64447801  8.84560678  1
  Mo  Mo111  1  10.36179140  8.77372809  11.91673034  1
  Mo  Mo112  1  8.82067414  7.14463663  10.29546322  1
  Mo  Mo113  1  12.01572613  7.26128684  7.18698538  1
  Mo  Mo114  1  10.38313954  5.64840011  11.99477517  1
  Mo  Mo115  1  11.84196220  7.15465536  10.31085374  1
  Mo  Mo116  1  13.50403902  5.62181919  8.87238628  1
  Mo  Mo117  1  13.53740170  5.63837145  11.96290190  1
  Mo  Mo118  1  15.07069462  7.15301701  7.29591054  1
  Mo  Mo119  1  13.53313207  8.90194601  8.89358548  1
  Mo  Mo120  1  15.19123714  7.12860070  10.42444571  1
  Mo  Mo121  1  13.41388036  8.70013162  12.12584282  1
