# generated using pymatgen
data_Mo
_symmetry_space_group_name_H-M   'P 1'
_cell_length_a   15.93663475
_cell_length_b   9.56198085
_cell_length_c   12.74930780
_cell_angle_alpha   90.00000000
_cell_angle_beta   90.00000000
_cell_angle_gamma   90.00000000
_symmetry_Int_Tables_number   1
_chemical_formula_structural   Mo
_chemical_formula_sum   Mo122
_cell_volume   1942.81342173
_cell_formula_units_Z   122
loop_
 _symmetry_equiv_pos_site_id
 _symmetry_equiv_pos_as_xyz
  1  'x, y, z'
loop_
 _atom_site_type_symbol
 _atom_site_label
 _atom_site_symmetry_multiplicity
 _atom_site_fract_x
 _atom_site_fract_y
 _atom_site_fract_z
 _atom_site_occupancy
  Mo  Mo0  1  1.73927765  1.42517204  4.64370699  1
  Mo  Mo1  1  0.10578947  3.06282261  3.05121518  1
  Mo  Mo2  1  1.71091938  1.50100262  1.53093966  1
  Mo  Mo3  1  0.13026436  3.09882650  6.21577409  1
  Mo  Mo4  1  1.65218717  4.59595666  4.67902575  1
  Mo  Mo5  1  3.13874256  3.10279825  3.10153722  1
  Mo  Mo6  1  3.33247444  3.03371964  6.11870460  1
  Mo  Mo7  1  1.69544942  4.70670883  1.48434114  1
  Mo  Mo8  1  6.57038159  2.97048942  6.17499418  1
  Mo  Mo9  1  4.87947982  1.39499669  4.56205780  1
  Mo  Mo10  1  4.83387424  4.68726713  4.59331545  1
  Mo  Mo11  1  6.14146271  3.52739786  0.33915939  1
  Mo  Mo12  1  4.82317038  1.49122219  1.44175408  1
  Mo  Mo13  1  6.42255317  3.04320218  3.10606501  1
  Mo  Mo14  1  4.62804838  4.87051360  1.61052354  1
  Mo  Mo15  1  1.69226209  1.44355130  7.78606384  1
  Mo  Mo16  1  1.77549005  1.45823683  10.93590742  1
  Mo  Mo17  1  1.65074741  4.63573371  11.12774280  1
  Mo  Mo18  1  0.13922661  3.09860805  9.42082496  1
  Mo  Mo19  1  0.10301619  2.94307444  12.65617033  1
  Mo  Mo20  1  3.33897818  3.01415878  9.21487002  1
  Mo  Mo21  1  3.16574051  3.21979598  12.74761981  1
  Mo  Mo22  1  1.76997925  4.74641637  7.81379656  1
  Mo  Mo23  1  6.55886353  3.01252044  9.30819615  1
  Mo  Mo24  1  4.60828894  1.79009615  11.38938164  1
  Mo  Mo25  1  6.09664154  0.42533836  10.10362784  1
  Mo  Mo26  1  4.72274476  4.71962693  10.98049028  1
  Mo  Mo27  1  7.39131190  2.16247722  11.72251191  1
  Mo  Mo28  1  4.94767472  4.61541822  7.77261947  1
  Mo  Mo29  1  5.06509942  1.36572492  7.72256553  1
  Mo  Mo30  1  1.83909758  7.83511491  1.44445487  1
  Mo  Mo31  1  1.70889378  7.74895779  4.73792676  1
  Mo  Mo32  1  3.24179946  6.29684738  3.10133863  1
  Mo  Mo33  1  0.22830098  9.36569712  2.91699992  1
  Mo  Mo34  1  0.15041701  6.22246649  6.25336668  1
  Mo  Mo35  1  0.08636594  6.22730209  3.06363682  1
  Mo  Mo36  1  3.25894748  9.41047856  6.31835439  1
  Mo  Mo37  1  3.27374224  6.21710463  6.23676477  1
  Mo  Mo38  1  3.31463137  9.38927936  3.21661858  1
  Mo  Mo39  1  0.08509527  9.47268605  6.33044836  1
  Mo  Mo40  1  4.91402409  7.87719557  4.65908758  1
  Mo  Mo41  1  6.48007399  6.20356097  6.21274563  1
  Mo  Mo42  1  6.59040913  6.31862248  3.14230720  1
  Mo  Mo43  1  4.86301693  7.76296813  1.52767290  1
  Mo  Mo44  1  6.48031230  9.35537057  2.92825982  1
  Mo  Mo45  1  6.54670998  9.42929471  6.02370041  1
  Mo  Mo46  1  1.68555977  7.78840717  7.85233243  1
  Mo  Mo47  1  1.72935821  7.84153921  11.01007980  1
  Mo  Mo48  1  0.16334306  9.38205078  12.53384053  1
  Mo  Mo49  1  0.11051684  6.25901649  12.57792692  1
  Mo  Mo50  1  0.13989883  6.18873642  9.45726574  1
  Mo  Mo51  1  3.40648795  9.44326533  9.41824333  1
  Mo  Mo52  1  0.19248476  9.47264633  9.46672843  1
  Mo  Mo53  1  3.25712047  6.19487277  9.45064285  1
  Mo  Mo54  1  3.21910093  9.48999294  12.65269506  1
  Mo  Mo55  1  3.30251754  6.33872945  12.60503409  1
  Mo  Mo56  1  6.53164713  9.40749975  12.73908055  1
  Mo  Mo57  1  7.27587308  8.65338415  8.58714534  1
  Mo  Mo58  1  6.54128854  6.19054357  9.42749750  1
  Mo  Mo59  1  4.87738472  7.79872378  11.10986994  1
  Mo  Mo60  1  4.82567258  7.84916497  7.79869399  1
  Mo  Mo61  1  6.47799876  6.27510206  12.64475156  1
  Mo  Mo62  1  11.23358986  1.34270864  1.33730707  1
  Mo  Mo63  1  8.12296727  1.42810120  4.60114972  1
  Mo  Mo64  1  9.75298216  3.00401097  3.08337640  1
  Mo  Mo65  1  9.68802424  2.89920650  6.14800616  1
  Mo  Mo66  1  8.13943016  1.54264639  1.56403424  1
  Mo  Mo67  1  11.36833138  4.49933399  4.45867323  1
  Mo  Mo68  1  11.41370859  1.49087466  4.65770740  1
  Mo  Mo69  1  11.26466878  4.74461915  1.29504768  1
  Mo  Mo70  1  8.13243989  4.59112106  4.56626785  1
  Mo  Mo71  1  8.29086295  4.73414367  1.46488951  1
  Mo  Mo72  1  12.94571069  2.97932656  2.92624416  1
  Mo  Mo73  1  14.43044900  4.75073564  1.42949131  1
  Mo  Mo74  1  14.51534509  1.44204203  1.41411072  1
  Mo  Mo75  1  12.89070199  2.94239924  6.18314619  1
  Mo  Mo76  1  14.55238164  4.67686115  4.65028023  1
  Mo  Mo77  1  14.48635134  1.52358200  4.59953124  1
  Mo  Mo78  1  11.44895784  1.44094980  7.82950482  1
  Mo  Mo79  1  9.59758756  3.06102540  9.39425398  1
  Mo  Mo80  1  8.26565228  1.42349398  7.69110930  1
  Mo  Mo81  1  8.16950622  4.50190569  7.67724790  1
  Mo  Mo82  1  8.80928515  0.73065151  10.48044734  1
  Mo  Mo83  1  9.82824677  2.96648789  12.52768432  1
  Mo  Mo84  1  11.41271565  1.43303610  10.93451731  1
  Mo  Mo85  1  11.42612030  4.45517809  7.82593025  1
  Mo  Mo86  1  11.29376183  4.59294806  11.05595348  1
  Mo  Mo87  1  8.05707599  4.57899730  11.09060697  1
  Mo  Mo88  1  14.55744561  1.45331187  7.86183484  1
  Mo  Mo89  1  12.90837627  3.00036689  9.53643259  1
  Mo  Mo90  1  14.43839250  4.64195942  7.81215821  1
  Mo  Mo91  1  14.49181249  1.48419220  11.02447738  1
  Mo  Mo92  1  12.99088931  3.11320422  12.68883795  1
  Mo  Mo93  1  14.57899234  4.66130183  10.96341177  1
  Mo  Mo94  1  10.02766818  6.00220333  6.02293585  1
  Mo  Mo95  1  9.74251661  6.27798158  3.01581699  1
  Mo  Mo96  1  9.69941323  9.39967541  3.06235593  1
  Mo  Mo97  1  8.22689796  7.72930757  4.66093444  1
  Mo  Mo98  1  9.82906098  9.35012787  6.06517538  1
  Mo  Mo99  1  11.46732717  7.92402247  4.58200590  1
  Mo  Mo100  1  11.37309747  7.80712402  1.33800212  1
  Mo  Mo101  1  8.06342086  7.75103303  1.44998553  1
  Mo  Mo102  1  12.98036418  6.13051061  5.98310915  1
  Mo  Mo103  1  12.90073065  6.16439954  2.91697013  1
  Mo  Mo104  1  14.49330190  7.93412063  4.58816211  1
  Mo  Mo105  1  13.02415269  9.32327886  2.96725245  1
  Mo  Mo106  1  12.98046348  9.40243577  6.16279099  1
  Mo  Mo107  1  14.61453948  7.76942222  1.49259244  1
  Mo  Mo108  1  8.58783047  7.22811282  7.43475289  1
  Mo  Mo109  1  10.02637737  8.97629711  8.97542333  1
  Mo  Mo110  1  9.66248591  6.04564431  9.42835142  1
  Mo  Mo111  1  11.34549383  7.88296453  10.96877363  1
  Mo  Mo112  1  8.05164463  7.67243216  11.12128871  1
  Mo  Mo113  1  11.57883397  7.55254497  7.60747423  1
  Mo  Mo114  1  9.69995934  6.25031836  12.50534324  1
  Mo  Mo115  1  9.66639808  9.26373244  12.65209929  1
  Mo  Mo116  1  14.57968740  7.76357382  7.90106577  1
  Mo  Mo117  1  12.93339827  9.47149453  9.35024702  1
  Mo  Mo118  1  12.97212281  6.17413032  12.55022398  1
  Mo  Mo119  1  12.84969371  6.24644591  9.38292457  1
  Mo  Mo120  1  14.62754695  7.92899708  11.10917489  1
  Mo  Mo121  1  12.90976638  9.38576437  12.55250774  1
