# generated using pymatgen
data_Mo
_symmetry_space_group_name_H-M   'P 1'
_cell_length_a   15.93663475
_cell_length_b   9.56198085
_cell_length_c   12.74930780
_cell_angle_alpha   90.00000000
_cell_angle_beta   90.00000000
_cell_angle_gamma   90.00000000
_symmetry_Int_Tables_number   1
_chemical_formula_structural   Mo
_chemical_formula_sum   Mo122
_cell_volume   1942.81342173
_cell_formula_units_Z   122
loop_
 _symmetry_equiv_pos_site_id
 _symmetry_equiv_pos_as_xyz
  1  'x, y, z'
loop_
 _atom_site_type_symbol
 _atom_site_label
 _atom_site_symmetry_multiplicity
 _atom_site_fract_x
 _atom_site_fract_y
 _atom_site_fract_z
 _atom_site_occupancy
  Mo  Mo0  1  2.04246095  1.14670293  4.32313736  1
  Mo  Mo1  1  0.40742677  2.88254502  2.79217784  1
  Mo  Mo2  1  1.92964348  1.35630195  1.17708679  1
  Mo  Mo3  1  0.44163344  2.76407773  5.98866960  1
  Mo  Mo4  1  1.98723381  4.34726573  4.40805331  1
  Mo  Mo5  1  3.54062377  2.86106779  2.84973839  1
  Mo  Mo6  1  3.71599626  2.81748780  6.08478588  1
  Mo  Mo7  1  2.02792436  4.40028855  1.20155275  1
  Mo  Mo8  1  6.78156931  2.76821828  2.79705316  1
  Mo  Mo9  1  6.69481642  2.74523179  6.02579550  1
  Mo  Mo10  1  5.04845780  1.23740770  4.44455367  1
  Mo  Mo11  1  5.15444386  4.30108424  4.44021453  1
  Mo  Mo12  1  5.16179160  4.35135663  1.34614420  1
  Mo  Mo13  1  5.04401937  1.26418720  1.23328701  1
  Mo  Mo14  1  2.02224476  1.29033123  7.62124627  1
  Mo  Mo15  1  1.93903666  1.22500592  10.72868153  1
  Mo  Mo16  1  1.94600708  4.49315792  10.79451323  1
  Mo  Mo17  1  0.40757075  2.75446611  9.15835206  1
  Mo  Mo18  1  0.39166390  2.75579664  12.40475875  1
  Mo  Mo19  1  3.57605176  2.81820272  9.19276725  1
  Mo  Mo20  1  2.03647355  4.31211577  7.60091092  1
  Mo  Mo21  1  3.53313703  2.81810342  12.22076757  1
  Mo  Mo22  1  5.15543680  1.24254118  7.75534237  1
  Mo  Mo23  1  6.67249521  2.87362844  9.29579437  1
  Mo  Mo24  1  5.09450027  1.19213971  10.85974918  1
  Mo  Mo25  1  5.15539708  4.38935631  10.82420204  1
  Mo  Mo26  1  6.65015413  2.86145504  12.54376989  1
  Mo  Mo27  1  5.23669874  4.43534914  7.62279525  1
  Mo  Mo28  1  1.85256180  7.64112486  1.19984490  1
  Mo  Mo29  1  0.51499359  9.30901036  6.02755300  1
  Mo  Mo30  1  1.99131478  7.47311003  4.32009898  1
  Mo  Mo31  1  0.43729729  9.17588733  2.71488765  1
  Mo  Mo32  1  0.48435653  6.05332964  5.99391231  1
  Mo  Mo33  1  3.54781264  9.04291324  6.03493052  1
  Mo  Mo34  1  3.61685153  5.91192552  6.10735533  1
  Mo  Mo35  1  3.40808658  9.22234684  2.77353049  1
  Mo  Mo36  1  3.60722004  5.97569192  2.89040908  1
  Mo  Mo37  1  0.29758910  5.92612451  2.74165722  1
  Mo  Mo38  1  6.72181437  9.14795602  5.99178742  1
  Mo  Mo39  1  4.99653713  7.57133134  4.56431177  1
  Mo  Mo40  1  6.60554148  6.01527038  6.00508284  1
  Mo  Mo41  1  6.59789587  5.98369499  2.92124969  1
  Mo  Mo42  1  4.97890258  7.76114112  1.35916160  1
  Mo  Mo43  1  6.42839164  9.47089876  2.90871883  1
  Mo  Mo44  1  2.08130464  7.51581624  7.69625271  1
  Mo  Mo45  1  1.99429359  7.62434423  10.82638650  1
  Mo  Mo46  1  0.37483958  9.20831664  12.34766489  1
  Mo  Mo47  1  0.25530390  6.02772180  12.32889838  1
  Mo  Mo48  1  0.41975011  5.93741420  9.21249690  1
  Mo  Mo49  1  3.60831227  9.13065906  9.20231930  1
  Mo  Mo50  1  0.48201717  9.10267810  9.13891036  1
  Mo  Mo51  1  3.53845917  5.97232586  9.21342034  1
  Mo  Mo52  1  3.53581796  9.17511284  12.37258760  1
  Mo  Mo53  1  3.51760750  6.01421786  12.36355188  1
  Mo  Mo54  1  6.76479861  9.19929085  12.33197649  1
  Mo  Mo55  1  6.76399433  9.20137601  9.14006217  1
  Mo  Mo56  1  6.76533479  6.00173665  9.13354850  1
  Mo  Mo57  1  5.12931264  7.58948222  10.77664037  1
  Mo  Mo58  1  5.18194821  7.58054579  7.67282933  1
  Mo  Mo59  1  6.48141446  6.39076926  12.73759115  1
  Mo  Mo60  1  11.57466363  1.12735059  1.17919182  1
  Mo  Mo61  1  8.40277685  1.21322969  4.41396129  1
  Mo  Mo62  1  9.99579491  2.71129322  2.81987085  1
  Mo  Mo63  1  10.07920160  2.73243284  5.92645218  1
  Mo  Mo64  1  8.38108118  1.23714954  1.24008863  1
  Mo  Mo65  1  11.54686140  4.33420861  4.42573752  1
  Mo  Mo66  1  11.61875002  1.12917760  4.32271040  1
  Mo  Mo67  1  11.61696274  4.27899140  1.36212056  1
  Mo  Mo68  1  8.36706091  4.39288124  4.27118691  1
  Mo  Mo69  1  8.34480920  4.36367897  1.36308370  1
  Mo  Mo70  1  13.21896688  2.76739414  2.86889214  1
  Mo  Mo71  1  14.70519460  4.35786036  1.23294941  1
  Mo  Mo72  1  14.68265494  1.22095474  1.09787030  1
  Mo  Mo73  1  13.30942342  2.74323599  6.01499235  1
  Mo  Mo74  1  14.74163538  4.32507359  4.50590723  1
  Mo  Mo75  1  14.81203459  1.24731721  4.38523563  1
  Mo  Mo76  1  10.37817485  2.33003529  8.57021577  1
  Mo  Mo77  1  9.06271240  3.75742158  9.82494029  1
  Mo  Mo78  1  8.25380655  1.16043524  7.47962370  1
  Mo  Mo79  1  8.34952565  4.42918301  7.43088043  1
  Mo  Mo80  1  8.25413422  1.24447741  10.75976045  1
  Mo  Mo81  1  9.98199309  2.74430836  12.35302675  1
  Mo  Mo82  1  11.70662493  1.16281829  10.75370353  1
  Mo  Mo83  1  11.53087512  4.39785585  7.45497901  1
  Mo  Mo84  1  11.87085666  0.94383304  7.34083100  1
  Mo  Mo85  1  11.70990162  4.09164409  10.32326545  1
  Mo  Mo86  1  14.88015005  1.16617442  7.48438979  1
  Mo  Mo87  1  13.35192111  2.68390802  8.99224368  1
  Mo  Mo88  1  14.86158214  4.45261631  7.46590131  1
  Mo  Mo89  1  14.73051449  1.20159247  10.74814309  1
  Mo  Mo90  1  13.19205830  2.80467892  12.25561965  1
  Mo  Mo91  1  14.68960549  4.32692045  10.75767528  1
  Mo  Mo92  1  9.88245119  5.96730160  6.00244163  1
  Mo  Mo93  1  9.96491458  6.02141665  2.74800209  1
  Mo  Mo94  1  10.03243428  9.22732145  2.89259354  1
  Mo  Mo95  1  8.28908559  7.62961672  4.42759431  1
  Mo  Mo96  1  10.02319997  9.17695970  5.95211960  1
  Mo  Mo97  1  11.54308824  7.62811739  4.39015066  1
  Mo  Mo98  1  11.59174214  7.49205527  1.18871408  1
  Mo  Mo99  1  9.20949824  6.88861782  0.30008931  1
  Mo  Mo100  1  8.01006044  8.12506237  1.81297341  1
  Mo  Mo101  1  14.74600430  7.47941518  1.17674919  1
  Mo  Mo102  1  13.09961588  5.96252558  5.86424470  1
  Mo  Mo103  1  13.16951863  5.89634634  2.82659303  1
  Mo  Mo104  1  13.34080022  9.08220375  5.77054126  1
  Mo  Mo105  1  13.19156183  9.15514488  2.75169581  1
  Mo  Mo106  1  14.82345337  7.55737065  4.29225703  1
  Mo  Mo107  1  8.32174328  7.58173731  7.44550639  1
  Mo  Mo108  1  9.95667321  9.17007865  9.13123496  1
  Mo  Mo109  1  9.92130480  6.22257571  9.08527192  1
  Mo  Mo110  1  11.50386724  7.52163485  10.73066740  1
  Mo  Mo111  1  8.31668923  7.70714522  10.66980038  1
  Mo  Mo112  1  11.62490623  7.57942377  7.55274356  1
  Mo  Mo113  1  9.99529845  9.31052955  12.26604549  1
  Mo  Mo114  1  10.41054459  5.30965974  11.86023224  1
  Mo  Mo115  1  7.87289615  4.86943130  11.44766702  1
  Mo  Mo116  1  13.08084938  9.08915430  12.35908366  1
  Mo  Mo117  1  14.82931169  7.57122211  7.52509027  1
  Mo  Mo118  1  13.28599011  9.00646253  9.11286563  1
  Mo  Mo119  1  13.07280659  5.81883770  12.34716842  1
  Mo  Mo120  1  13.14965990  5.97076695  9.06168967  1
  Mo  Mo121  1  14.67947754  7.52767191  10.72093662  1
