# generated using pymatgen
data_Mo
_symmetry_space_group_name_H-M   'P 1'
_cell_length_a   9.56198085
_cell_length_b   12.74930780
_cell_length_c   15.93663475
_cell_angle_alpha   90.00000000
_cell_angle_beta   90.00000000
_cell_angle_gamma   90.00000000
_symmetry_Int_Tables_number   1
_chemical_formula_structural   Mo
_chemical_formula_sum   Mo122
_cell_volume   1942.81342173
_cell_formula_units_Z   122
loop_
 _symmetry_equiv_pos_site_id
 _symmetry_equiv_pos_as_xyz
  1  'x, y, z'
loop_
 _atom_site_type_symbol
 _atom_site_label
 _atom_site_symmetry_multiplicity
 _atom_site_fract_x
 _atom_site_fract_y
 _atom_site_fract_z
 _atom_site_occupancy
  Mo  Mo0  1  1.01594309  2.82452772  2.26741077  1
  Mo  Mo1  1  2.77548658  1.12574203  2.26743063  1
  Mo  Mo2  1  1.63781937  5.02311805  1.35364088  1
  Mo  Mo3  1  3.44119109  3.43749736  3.27760476  1
  Mo  Mo4  1  0.86442094  1.03255492  0.63248581  1
  Mo  Mo5  1  4.94021776  4.83446007  1.63113691  1
  Mo  Mo6  1  3.21335182  3.17850967  0.16255963  1
  Mo  Mo7  1  3.21342133  3.32444159  6.45616408  1
  Mo  Mo8  1  1.62650982  4.84167872  4.83780627  1
  Mo  Mo9  1  1.56630807  1.65622842  4.85320671  1
  Mo  Mo10  1  4.71073022  1.61566695  4.86800147  1
  Mo  Mo11  1  1.65945546  4.87630242  8.09650551  1
  Mo  Mo12  1  4.84840090  4.83698213  4.83167985  1
  Mo  Mo13  1  4.76673185  4.77298736  8.00310988  1
  Mo  Mo14  1  3.25930493  6.45864642  9.51618661  1
  Mo  Mo15  1  1.62580484  1.64137409  11.14780013  1
  Mo  Mo16  1  0.15803283  6.36006766  9.56179219  1
  Mo  Mo17  1  1.62078058  4.83263307  11.23627079  1
  Mo  Mo18  1  3.13819644  3.19521087  9.64416623  1
  Mo  Mo19  1  4.70335270  1.56784712  7.99931686  1
  Mo  Mo20  1  0.02320702  3.14447180  9.46270704  1
  Mo  Mo21  1  1.61826845  1.50402115  7.97948791  1
  Mo  Mo22  1  3.14518671  -0.04083313  12.69032736  1
  Mo  Mo23  1  1.74475866  4.86329495  14.21279727  1
  Mo  Mo24  1  0.00057478  3.11696745  12.53791157  1
  Mo  Mo25  1  4.89488027  4.79845618  14.34416280  1
  Mo  Mo26  1  3.19049442  3.18643331  12.70939174  1
  Mo  Mo27  1  1.50595737  1.58543203  14.06048077  1
  Mo  Mo28  1  1.55620990  7.90393536  1.49090445  1
  Mo  Mo29  1  3.30370907  12.11392758  3.65888254  1
  Mo  Mo30  1  1.50639426  11.16289276  1.55395593  1
  Mo  Mo31  1  3.17801320  6.44113102  3.28524044  1
  Mo  Mo32  1  3.09921374  9.53805108  3.17182721  1
  Mo  Mo33  1  4.71639989  11.12655128  1.56094621  1
  Mo  Mo34  1  -0.04626529  6.29850558  3.09659239  1
  Mo  Mo35  1  3.19045470  9.54253915  6.47241845  1
  Mo  Mo36  1  1.51484416  11.09378437  4.93806309  1
  Mo  Mo37  1  3.24061787  12.66272372  6.51144087  1
  Mo  Mo38  1  3.16079568  6.39212959  6.37659013  1
  Mo  Mo39  1  1.56724143  7.95089134  4.72067945  1
  Mo  Mo40  1  1.61170514  7.98486963  8.01507477  1
  Mo  Mo41  1  0.01753248  6.31795721  6.37956894  1
  Mo  Mo42  1  0.02452792  9.47546627  6.36711751  1
  Mo  Mo43  1  1.52656081  11.07025177  7.99675508  1
  Mo  Mo44  1  1.75398304  8.01934439  11.12377106  1
  Mo  Mo45  1  1.58041770  11.18870912  11.20817068  1
  Mo  Mo46  1  3.14949606  9.59287111  9.54120861  1
  Mo  Mo47  1  3.12019450  12.74632899  9.60188698  1
  Mo  Mo48  1  4.74286165  8.02541124  11.12684916  1
  Mo  Mo49  1  3.07579037  9.60786446  15.91757037  1
  Mo  Mo50  1  3.31348949  9.59721025  12.61307688  1
  Mo  Mo51  1  1.49212576  11.11453674  14.23106730  1
  Mo  Mo52  1  3.27936226  12.73421516  15.71699714  1
  Mo  Mo53  1  0.07698536  6.44320625  12.69688074  1
  Mo  Mo54  1  1.57243449  8.02261116  14.29679972  1
  Mo  Mo55  1  0.04527990  9.50968287  12.73868338  1
  Mo  Mo56  1  3.31620021  6.34548142  15.75979272  1
  Mo  Mo57  1  3.25193734  6.31351879  12.71286702  1
  Mo  Mo58  1  -0.04226157  9.51133115  15.98568583  1
  Mo  Mo59  1  5.13428725  1.75296032  1.68462641  1
  Mo  Mo60  1  8.96238607  3.32473947  3.79183677  1
  Mo  Mo61  1  8.02435873  1.48715115  1.64110599  1
  Mo  Mo62  1  6.34093377  -0.03604986  3.20642112  1
  Mo  Mo63  1  7.98917898  4.63728269  1.54850471  1
  Mo  Mo64  1  6.36125918  3.21475186  3.34444926  1
  Mo  Mo65  1  7.75316784  5.09452013  4.93449845  1
  Mo  Mo66  1  7.96162498  1.30431178  4.88557645  1
  Mo  Mo67  1  6.34240332  3.19758399  6.46059258  1
  Mo  Mo68  1  9.43397145  3.20805947  6.43486558  1
  Mo  Mo69  1  6.48409539  0.00361966  6.45678963  1
  Mo  Mo70  1  7.94881610  1.57848147  7.98532638  1
  Mo  Mo71  1  4.83298059  1.58885766  11.20529116  1
  Mo  Mo72  1  7.94718768  1.58237378  11.13866511  1
  Mo  Mo73  1  6.45624351  3.22703449  9.58581133  1
  Mo  Mo74  1  8.05953847  4.68544012  11.15991395  1
  Mo  Mo75  1  4.80945792  4.73626855  11.15216905  1
  Mo  Mo76  1  7.91130295  4.77958046  7.97880279  1
  Mo  Mo77  1  9.63136727  3.38665900  15.68601752  1
  Mo  Mo78  1  4.81186083  1.68609596  14.32440336  1
  Mo  Mo79  1  7.94776358  1.77605603  14.25370626  1
  Mo  Mo80  1  6.44092250  3.25966239  16.00236716  1
  Mo  Mo81  1  6.32299140  3.25347640  12.67434108  1
  Mo  Mo82  1  8.01762661  4.88464309  14.20296720  1
  Mo  Mo83  1  4.65971313  7.98815625  1.53505042  1
  Mo  Mo84  1  7.89364853  8.00136231  1.54682665  1
  Mo  Mo85  1  7.82581109  11.05893229  1.68294835  1
  Mo  Mo86  1  6.28927127  9.65354948  3.11362126  1
  Mo  Mo87  1  6.32766813  6.51571049  3.17590818  1
  Mo  Mo88  1  9.57536564  12.57028131  3.26517319  1
  Mo  Mo89  1  9.54923154  9.54288668  3.25123236  1
  Mo  Mo90  1  6.44331548  9.52008885  6.41447066  1
  Mo  Mo91  1  9.61638385  12.70700870  6.53892536  1
  Mo  Mo92  1  6.27541980  6.45987766  6.41080673  1
  Mo  Mo93  1  7.97100823  11.05327255  4.82658608  1
  Mo  Mo94  1  7.98869244  8.03740591  4.82063839  1
  Mo  Mo95  1  4.97297474  11.02000917  5.00351748  1
  Mo  Mo96  1  4.79118789  8.06051155  4.86915328  1
  Mo  Mo97  1  7.96646058  7.84815217  7.99570257  1
  Mo  Mo98  1  8.01574996  11.04056296  7.99151238  1
  Mo  Mo99  1  8.11510321  7.79561589  11.12377106  1
  Mo  Mo100  1  6.36286774  9.57162227  9.44116031  1
  Mo  Mo101  1  8.01483646  11.10003987  11.02249151  1
  Mo  Mo102  1  4.72879174  11.20400035  11.06429415  1
  Mo  Mo103  1  9.48404525  9.42645491  9.57629900  1
  Mo  Mo104  1  4.72320151  7.92567074  7.99715226  1
  Mo  Mo105  1  6.21743230  12.73649892  9.57377694  1
  Mo  Mo106  1  6.46134721  6.39807728  9.52168748  1
  Mo  Mo107  1  9.57409468  12.73927914  9.57971470  1
  Mo  Mo108  1  4.81653756  11.17550306  8.09360613  1
  Mo  Mo109  1  6.34959218  6.31015273  15.76624681  1
  Mo  Mo110  1  7.79917060  10.87027431  14.05323233  1
  Mo  Mo111  1  6.33056751  12.66183007  15.81907104  1
  Mo  Mo112  1  6.33530382  9.43453742  12.57306153  1
  Mo  Mo113  1  4.83184865  11.20697916  14.17635649  1
  Mo  Mo114  1  7.90895962  7.91949468  14.31933938  1
  Mo  Mo115  1  4.74381487  8.06592306  14.30017570  1
  Mo  Mo116  1  8.99587782  12.19852579  15.52823987  1
  Mo  Mo117  1  9.53445664  6.45408884  15.89125754  1
  Mo  Mo118  1  6.42854058  6.35050568  12.66967427  1
  Mo  Mo119  1  6.33111362  12.71673948  12.71376067  1
  Mo  Mo120  1  9.43852903  12.78515282  12.69390193  1
  Mo  Mo121  1  6.25264183  9.53987808  15.88053383  1
