# generated using pymatgen
data_Mo
_symmetry_space_group_name_H-M   'P 1'
_cell_length_a   9.56198085
_cell_length_b   12.74930780
_cell_length_c   15.93663475
_cell_angle_alpha   90.00000000
_cell_angle_beta   90.00000000
_cell_angle_gamma   90.00000000
_symmetry_Int_Tables_number   1
_chemical_formula_structural   Mo
_chemical_formula_sum   Mo122
_cell_volume   1942.81342173
_cell_formula_units_Z   122
loop_
 _symmetry_equiv_pos_site_id
 _symmetry_equiv_pos_as_xyz
  1  'x, y, z'
loop_
 _atom_site_type_symbol
 _atom_site_label
 _atom_site_symmetry_multiplicity
 _atom_site_fract_x
 _atom_site_fract_y
 _atom_site_fract_z
 _atom_site_occupancy
  Mo  Mo0  1  1.14290991  2.61178110  2.25133513  1
  Mo  Mo1  1  2.95497975  0.97411563  2.20602742  1
  Mo  Mo2  1  1.59267054  4.93782478  1.48724051  1
  Mo  Mo3  1  3.43681224  3.44713878  3.20415723  1
  Mo  Mo4  1  1.12658603  0.95421023  0.48875524  1
  Mo  Mo5  1  3.11905262  3.09073406  -0.01548773  1
  Mo  Mo6  1  -0.10594834  6.40019223  6.40994287  1
  Mo  Mo7  1  3.16994063  3.15211741  6.41061807  1
  Mo  Mo8  1  1.54873309  4.72389656  4.71072029  1
  Mo  Mo9  1  1.62838647  1.66380453  4.73611961  1
  Mo  Mo10  1  4.81230765  1.62574526  4.78997650  1
  Mo  Mo11  1  1.58693136  1.58391284  11.13836723  1
  Mo  Mo12  1  0.05737149  6.34849002  9.58079700  1
  Mo  Mo13  1  1.71618194  4.70062213  11.19407098  1
  Mo  Mo14  1  3.15521538  3.09797257  9.55487142  1
  Mo  Mo15  1  4.75663369  1.60018707  8.07657727  1
  Mo  Mo16  1  0.06282390  3.08136074  9.57365779  1
  Mo  Mo17  1  1.72067994  1.66818338  7.98148372  1
  Mo  Mo18  1  4.65839253  4.77998756  7.98575334  1
  Mo  Mo19  1  1.61119874  4.87787126  8.05149569  1
  Mo  Mo20  1  -0.02785714  3.32754948  16.01140289  1
  Mo  Mo21  1  3.20821834  3.11632204  12.73639962  1
  Mo  Mo22  1  1.58292983  4.68459613  14.33532566  1
  Mo  Mo23  1  0.00722733  3.18071399  12.69032736  1
  Mo  Mo24  1  1.64615011  1.55029200  14.17526426  1
  Mo  Mo25  1  3.14291289  6.41040955  15.75939554  1
  Mo  Mo26  1  3.18279916  6.32029061  12.84492761  1
  Mo  Mo27  1  1.51881590  7.94603588  1.57764741  1
  Mo  Mo28  1  3.25592895  12.18849713  3.79754616  1
  Mo  Mo29  1  1.66767698  11.14919024  1.70102973  1
  Mo  Mo30  1  3.18130975  6.39568430  3.25691196  1
  Mo  Mo31  1  3.16769659  9.51357518  3.19287747  1
  Mo  Mo32  1  4.78271814  11.12873574  1.74254441  1
  Mo  Mo33  1  0.01604298  12.72200204  3.13284451  1
  Mo  Mo34  1  4.77558885  7.95516096  1.57077628  1
  Mo  Mo35  1  -0.00517881  9.57509755  6.40016245  1
  Mo  Mo36  1  3.07305979  9.55849564  6.38656914  1
  Mo  Mo37  1  1.36010489  11.04076154  4.90844379  1
  Mo  Mo38  1  3.23707308  12.76191810  6.37723554  1
  Mo  Mo39  1  3.16668380  6.40748039  6.34549135  1
  Mo  Mo40  1  1.48814409  7.94673093  4.81461126  1
  Mo  Mo41  1  0.02251196  12.80818895  6.47196170  1
  Mo  Mo42  1  1.61631236  11.13072161  8.00125309  1
  Mo  Mo43  1  1.62505021  7.94662171  11.24143406  1
  Mo  Mo44  1  1.62077065  11.15971537  11.18334726  1
  Mo  Mo45  1  3.20209192  9.61637393  9.59384419  1
  Mo  Mo46  1  3.23915825  12.69042665  9.62003786  1
  Mo  Mo47  1  4.78085141  7.96571588  11.13042373  1
  Mo  Mo48  1  0.02886020  12.66788699  9.60038764  1
  Mo  Mo49  1  4.81572335  11.08464935  11.12774280  1
  Mo  Mo50  1  4.76052600  8.01728902  7.97038268  1
  Mo  Mo51  1  3.15850200  6.44429848  9.61352420  1
  Mo  Mo52  1  1.54899125  7.94943172  7.89328115  1
  Mo  Mo53  1  3.23828446  9.49356751  15.92829408  1
  Mo  Mo54  1  3.16975197  9.64908126  12.75943576  1
  Mo  Mo55  1  1.72584321  11.15911960  14.22133652  1
  Mo  Mo56  1  3.54602535  12.66838346  15.70339391  1
  Mo  Mo57  1  0.02944335  6.27905395  12.72567591  1
  Mo  Mo58  1  1.51707826  7.92374445  14.33393555  1
  Mo  Mo59  1  0.12276471  9.52919408  12.69181676  1
  Mo  Mo60  1  4.64066860  7.95559786  14.30722555  1
  Mo  Mo61  1  3.20900276  12.69380264  12.67324885  1
  Mo  Mo62  1  5.01779591  1.75146098  1.43838803  1
  Mo  Mo63  1  9.00007795  3.49277415  3.51815361  1
  Mo  Mo64  1  7.99488836  1.65906822  1.59255139  1
  Mo  Mo65  1  7.88404683  4.87571659  1.58396248  1
  Mo  Mo66  1  6.27426800  3.39457271  3.21973641  1
  Mo  Mo67  1  4.74109423  4.90534582  1.45289483  1
  Mo  Mo68  1  9.44661153  6.42912641  3.27554938  1
  Mo  Mo69  1  6.40895987  3.28334393  -0.07695995  1
  Mo  Mo70  1  4.78284722  4.88240898  4.96893349  1
  Mo  Mo71  1  7.74110366  4.97652946  4.94094261  1
  Mo  Mo72  1  8.01230447  1.47417347  4.80418543  1
  Mo  Mo73  1  6.34268134  3.15869065  6.47957753  1
  Mo  Mo74  1  9.54914218  3.17402160  6.27598578  1
  Mo  Mo75  1  6.33518466  -0.04968616  6.44665174  1
  Mo  Mo76  1  7.93780443  1.60364249  7.95255947  1
  Mo  Mo77  1  4.73488837  1.53493127  11.21392971  1
  Mo  Mo78  1  7.99187976  1.62762191  11.12794139  1
  Mo  Mo79  1  6.38496058  3.23187009  9.50288126  1
  Mo  Mo80  1  8.05074105  4.77769388  11.08742957  1
  Mo  Mo81  1  4.83981200  4.70340235  11.20380176  1
  Mo  Mo82  1  7.95573687  4.75351587  8.00761781  1
  Mo  Mo83  1  7.97984537  4.78448556  14.20674035  1
  Mo  Mo84  1  4.88205153  1.68968046  14.28130990  1
  Mo  Mo85  1  7.90625883  1.62961771  14.27773533  1
  Mo  Mo86  1  6.35522213  6.30577388  12.70750516  1
  Mo  Mo87  1  6.41360681  3.21782004  12.67960364  1
  Mo  Mo88  1  4.75822239  4.74729015  14.34217693  1
  Mo  Mo89  1  9.54113911  -0.03632024  12.74464100  1
  Mo  Mo90  1  6.31226768  6.41273302  15.83535520  1
  Mo  Mo91  1  7.81744064  8.00191836  1.58264188  1
  Mo  Mo92  1  8.03170646  11.07481927  1.62541759  1
  Mo  Mo93  1  6.39158347  9.64656913  3.15547354  1
  Mo  Mo94  1  6.32269352  6.50274274  3.15547354  1
  Mo  Mo95  1  9.52036687  9.56130565  3.17075484  1
  Mo  Mo96  1  6.40416398  12.77383334  3.22264571  1
  Mo  Mo97  1  9.53511198  9.52163783  -0.01471691  1
  Mo  Mo98  1  4.81732198  8.04294650  4.82573216  1
  Mo  Mo99  1  4.93672262  11.00720028  4.94711867  1
  Mo  Mo100  1  6.42121270  9.56066024  6.51353596  1
  Mo  Mo101  1  7.93829097  8.02991917  4.71034298  1
  Mo  Mo102  1  6.25205600  6.42106376  6.49395525  1
  Mo  Mo103  1  7.97524807  11.09805399  4.78758353  1
  Mo  Mo104  1  8.01085479  7.92515442  8.05047296  1
  Mo  Mo105  1  7.93177730  11.20926291  7.95314530  1
  Mo  Mo106  1  8.08653642  8.02188631  11.11523180  1
  Mo  Mo107  1  6.44669146  9.61079362  9.65961632  1
  Mo  Mo108  1  7.94742599  11.13121808  11.02775407  1
  Mo  Mo109  1  9.58884972  9.52539113  9.59667406  1
  Mo  Mo110  1  6.34349555  12.72011546  9.52360385  1
  Mo  Mo111  1  6.25088434  6.30886191  9.49082700  1
  Mo  Mo112  1  4.85061515  11.07710303  8.10519371  1
  Mo  Mo113  1  6.21821672  9.59612795  15.91379721  1
  Mo  Mo114  1  8.99459694  12.41041849  15.50162916  1
  Mo  Mo115  1  6.41951478  12.72885330  12.63819818  1
  Mo  Mo116  1  9.43942267  6.37833770  15.90466219  1
  Mo  Mo117  1  7.81101634  10.92528300  14.03198349  1
  Mo  Mo118  1  6.42505537  12.70859739  15.88073241  1
  Mo  Mo119  1  6.25435961  9.41969302  12.66540465  1
  Mo  Mo120  1  4.87614355  11.12079225  14.25181968  1
  Mo  Mo121  1  7.91441084  7.98582285  14.25062816  1
