# generated using pymatgen
data_Mo
_symmetry_space_group_name_H-M   'P 1'
_cell_length_a   9.56198085
_cell_length_b   12.74930780
_cell_length_c   15.93663475
_cell_angle_alpha   90.00000000
_cell_angle_beta   90.00000000
_cell_angle_gamma   90.00000000
_symmetry_Int_Tables_number   1
_chemical_formula_structural   Mo
_chemical_formula_sum   Mo122
_cell_volume   1942.81342173
_cell_formula_units_Z   122
loop_
 _symmetry_equiv_pos_site_id
 _symmetry_equiv_pos_as_xyz
  1  'x, y, z'
loop_
 _atom_site_type_symbol
 _atom_site_label
 _atom_site_symmetry_multiplicity
 _atom_site_fract_x
 _atom_site_fract_y
 _atom_site_fract_z
 _atom_site_occupancy
  Mo  Mo0  1  0.96648392  2.64886728  2.21977960  1
  Mo  Mo1  1  2.84610424  0.90964524  2.26963495  1
  Mo  Mo2  1  1.64732178  4.88664882  1.55629927  1
  Mo  Mo3  1  3.23863199  3.40021259  3.20951909  1
  Mo  Mo4  1  1.07911372  0.90306207  0.61292694  1
  Mo  Mo5  1  3.01210340  3.16922571  -0.01365924  1
  Mo  Mo6  1  -0.08632106  6.47024392  6.45129869  1
  Mo  Mo7  1  3.28074244  3.21639021  6.39910000  1
  Mo  Mo8  1  1.50836028  4.82969397  4.74675397  1
  Mo  Mo9  1  1.53562632  1.60733621  4.83969285  1
  Mo  Mo10  1  4.71262673  1.51428811  4.81082817  1
  Mo  Mo11  1  1.58357524  1.57620765  11.16616946  1
  Mo  Mo12  1  -0.01862412  6.34510410  9.53867663  1
  Mo  Mo13  1  1.60039559  4.79408726  11.12456541  1
  Mo  Mo14  1  3.20000675  3.27510256  9.55424587  1
  Mo  Mo15  1  4.79735402  1.67702051  8.03344410  1
  Mo  Mo16  1  -0.00591485  3.20609345  9.57467058  1
  Mo  Mo17  1  1.58267167  1.54943807  7.94765436  1
  Mo  Mo18  1  4.74695255  4.85739691  8.00688304  1
  Mo  Mo19  1  1.60711777  4.85915441  7.91773718  1
  Mo  Mo20  1  0.04046535  3.31616049  15.75472874  1
  Mo  Mo21  1  3.17042717  3.34267190  12.70949104  1
  Mo  Mo22  1  1.60796176  4.77667115  14.30523968  1
  Mo  Mo23  1  0.09348797  3.23418364  12.68466762  1
  Mo  Mo24  1  1.65656602  1.65522555  14.11042549  1
  Mo  Mo25  1  3.20667929  6.30007442  15.99323215  1
  Mo  Mo26  1  3.18402047  6.34379343  12.73669750  1
  Mo  Mo27  1  1.55679573  7.95370135  1.59238259  1
  Mo  Mo28  1  3.46953943  12.13398490  3.82701652  1
  Mo  Mo29  1  1.68460655  11.11443745  1.69999707  1
  Mo  Mo30  1  3.15224650  6.42993069  3.25488637  1
  Mo  Mo31  1  3.13749146  9.45749412  3.20561685  1
  Mo  Mo32  1  4.83259335  11.09676318  1.50527225  1
  Mo  Mo33  1  -0.17784093  12.56700461  3.26204544  1
  Mo  Mo34  1  4.74648587  7.92837153  1.57133233  1
  Mo  Mo35  1  -0.06079593  9.44557888  6.27682977  1
  Mo  Mo36  1  3.17649401  9.53580704  6.38059166  1
  Mo  Mo37  1  1.40336715  11.06270545  4.93107281  1
  Mo  Mo38  1  3.12456342  12.81404728  6.42863987  1
  Mo  Mo39  1  3.09315683  6.45011709  6.44942204  1
  Mo  Mo40  1  1.56380587  7.95804048  4.78404867  1
  Mo  Mo41  1  -0.08544588  12.70770375  6.33823298  1
  Mo  Mo42  1  1.63349017  11.15326128  7.94943172  1
  Mo  Mo43  1  1.62963757  8.03905419  11.14919024  1
  Mo  Mo44  1  1.57499626  11.18225503  11.10361444  1
  Mo  Mo45  1  3.25764673  9.57651744  9.58968379  1
  Mo  Mo46  1  3.28261909  12.82149430  9.52470601  1
  Mo  Mo47  1  4.83263307  7.87045353  11.18632607  1
  Mo  Mo48  1  0.03198239  12.77562062  9.53370201  1
  Mo  Mo49  1  4.81227786  11.09934481  11.06538638  1
  Mo  Mo50  1  4.79950870  7.97382817  8.11120097  1
  Mo  Mo51  1  3.13764040  6.28094053  9.50411250  1
  Mo  Mo52  1  1.70131768  7.98990382  8.04021593  1
  Mo  Mo53  1  3.22552523  9.49089651  15.88887449  1
  Mo  Mo54  1  3.15651612  9.53329491  12.68129163  1
  Mo  Mo55  1  1.63446325  11.18255291  14.26313916  1
  Mo  Mo56  1  3.36539030  12.78227330  15.69574830  1
  Mo  Mo57  1  0.08401119  6.39766024  12.77194676  1
  Mo  Mo58  1  1.61782163  7.96847625  14.38080217  1
  Mo  Mo59  1  0.09584808  9.60127136  12.76122304  1
  Mo  Mo60  1  4.71035291  7.89049099  14.28965057  1
  Mo  Mo61  1  3.23280345  12.76886865  12.72259780  1
  Mo  Mo62  1  5.06545687  1.73338953  1.40414164  1
  Mo  Mo63  1  8.97051822  3.44631464  3.76947583  1
  Mo  Mo64  1  8.02004938  1.51824993  1.47828423  1
  Mo  Mo65  1  8.02697015  4.69645179  1.51960032  1
  Mo  Mo66  1  6.37439574  3.22541600  3.06484820  1
  Mo  Mo67  1  4.82605982  4.83612820  1.57033939  1
  Mo  Mo68  1  9.46592415  6.30243761  3.09971021  1
  Mo  Mo69  1  6.45363209  3.22527699  -0.11047315  1
  Mo  Mo70  1  4.73506710  4.85762528  4.79510999  1
  Mo  Mo71  1  7.73442120  5.01601855  4.97040304  1
  Mo  Mo72  1  7.78796035  1.49628617  4.80734297  1
  Mo  Mo73  1  6.28436616  3.27637352  6.42024956  1
  Mo  Mo74  1  9.50277203  3.11949944  6.52020850  1
  Mo  Mo75  1  6.29526861  -0.05861226  6.43543156  1
  Mo  Mo76  1  7.85876666  1.62230970  7.99207835  1
  Mo  Mo77  1  4.79003608  1.65129352  11.09686247  1
  Mo  Mo78  1  8.09975241  1.56012207  11.12436682  1
  Mo  Mo79  1  6.39101750  3.22427413  9.66272421  1
  Mo  Mo80  1  8.03027663  4.85018819  11.27112287  1
  Mo  Mo81  1  4.82320017  4.82259447  11.20568834  1
  Mo  Mo82  1  7.92310897  4.82441155  8.08887976  1
  Mo  Mo83  1  8.03659171  4.83885878  14.37891559  1
  Mo  Mo84  1  4.81827520  1.70656038  14.11221278  1
  Mo  Mo85  1  7.92014008  1.59419966  14.12253932  1
  Mo  Mo86  1  6.34896663  6.37283683  12.76042869  1
  Mo  Mo87  1  6.38554642  3.33839235  12.67245450  1
  Mo  Mo88  1  4.70172429  4.89201068  14.41912952  1
  Mo  Mo89  1  9.59387398  -0.00489985  12.68516409  1
  Mo  Mo90  1  6.42532346  6.35098229  15.84220647  1
  Mo  Mo91  1  7.97904109  7.94303721  1.54030305  1
  Mo  Mo92  1  7.95752415  11.08236559  1.68874710  1
  Mo  Mo93  1  6.27181544  9.43034723  3.16262268  1
  Mo  Mo94  1  6.32922704  6.39510840  3.21079997  1
  Mo  Mo95  1  9.51571000  9.48044089  3.11637169  1
  Mo  Mo96  1  6.33737906  12.70174613  3.18371266  1
  Mo  Mo97  1  9.57271450  9.56445326  -0.12866574  1
  Mo  Mo98  1  4.68719762  7.90419352  4.84041769  1
  Mo  Mo99  1  5.09041930  10.77852695  4.97048247  1
  Mo  Mo100  1  6.47275605  9.49134333  6.50943513  1
  Mo  Mo101  1  7.90277362  7.97527786  4.73200886  1
  Mo  Mo102  1  6.19492242  6.56063095  6.61913479  1
  Mo  Mo103  1  7.90324030  11.10669254  4.73465007  1
  Mo  Mo104  1  8.02671199  8.09207701  8.08074760  1
  Mo  Mo105  1  7.99021163  11.15564433  7.98292348  1
  Mo  Mo106  1  8.02266080  7.94373226  11.18453879  1
  Mo  Mo107  1  6.39124587  9.53172607  9.55272668  1
  Mo  Mo108  1  7.90580208  11.07978396  11.08901827  1
  Mo  Mo109  1  9.50004146  9.60841057  9.62543944  1
  Mo  Mo110  1  6.46463383  12.73778973  9.48236718  1
  Mo  Mo111  1  6.49416377  6.36387061  9.68015025  1
  Mo  Mo112  1  4.79277658  11.09050768  7.98738176  1
  Mo  Mo113  1  6.45105045  9.47493009  15.85005067  1
  Mo  Mo114  1  9.11652957  12.32224571  15.62822860  1
  Mo  Mo115  1  6.33000154  12.80431650  12.68456833  1
  Mo  Mo116  1  9.54484276  6.38841600  15.97704728  1
  Mo  Mo117  1  7.84178745  10.95755345  14.00080527  1
  Mo  Mo118  1  6.40057948  12.78842951  15.90456289  1
  Mo  Mo119  1  6.27838868  9.59077602  12.69608639  1
  Mo  Mo120  1  4.72663707  11.14253756  14.26532362  1
  Mo  Mo121  1  8.13758330  7.95035515  14.18281058  1
