# generated using pymatgen
data_Mo
_symmetry_space_group_name_H-M   'P 1'
_cell_length_a   9.56198085
_cell_length_b   12.74930780
_cell_length_c   15.93663475
_cell_angle_alpha   90.00000000
_cell_angle_beta   90.00000000
_cell_angle_gamma   90.00000000
_symmetry_Int_Tables_number   1
_chemical_formula_structural   Mo
_chemical_formula_sum   Mo122
_cell_volume   1942.81342173
_cell_formula_units_Z   122
loop_
 _symmetry_equiv_pos_site_id
 _symmetry_equiv_pos_as_xyz
  1  'x, y, z'
loop_
 _atom_site_type_symbol
 _atom_site_label
 _atom_site_symmetry_multiplicity
 _atom_site_fract_x
 _atom_site_fract_y
 _atom_site_fract_z
 _atom_site_occupancy
  Mo  Mo0  1  2.17725212  2.49695789  2.91011887  1
  Mo  Mo1  1  4.04366539  1.32990969  1.56924716  1
  Mo  Mo2  1  1.66439036  4.85103218  1.61114909  1
  Mo  Mo3  1  4.01621069  3.83207057  3.24574142  1
  Mo  Mo4  1  1.24774417  1.16155726  1.06920422  1
  Mo  Mo5  1  3.26123123  6.58177058  3.25879854  1
  Mo  Mo6  1  4.86836886  4.82446120  1.26175451  1
  Mo  Mo7  1  3.14676548  -0.10778527  6.38039307  1
  Mo  Mo8  1  3.23219776  3.04076949  6.38405701  1
  Mo  Mo9  1  1.72853407  4.76488499  4.67543132  1
  Mo  Mo10  1  1.43570710  1.27332222  5.05849639  1
  Mo  Mo11  1  4.80918983  1.57108409  8.07416443  1
  Mo  Mo12  1  1.55138423  1.63867330  11.13151596  1
  Mo  Mo13  1  1.61400875  4.78249969  11.21581629  1
  Mo  Mo14  1  3.02455483  3.13644887  9.56374828  1
  Mo  Mo15  1  4.71508921  4.75010016  11.15812667  1
  Mo  Mo16  1  3.09300789  6.37211198  9.62146769  1
  Mo  Mo17  1  -0.06617695  6.29551684  9.54833790  1
  Mo  Mo18  1  1.69701826  4.74414254  7.98150358  1
  Mo  Mo19  1  4.71024368  4.73718206  7.95812984  1
  Mo  Mo20  1  1.52617356  1.49050728  8.05832709  1
  Mo  Mo21  1  4.50789310  1.54707488  14.39678845  1
  Mo  Mo22  1  1.54547625  4.77692931  14.35031901  1
  Mo  Mo23  1  4.78999636  4.78045424  14.27157912  1
  Mo  Mo24  1  1.33935252  1.59757565  14.25033028  1
  Mo  Mo25  1  3.12874368  3.12614219  12.83013285  1
  Mo  Mo26  1  3.12792947  6.40695413  15.91230780  1
  Mo  Mo27  1  3.08685168  6.41954457  12.78038672  1
  Mo  Mo28  1  3.00884657  3.21628099  15.90555583  1
  Mo  Mo29  1  -0.15140002  3.16707104  15.78014792  1
  Mo  Mo30  1  1.55289349  7.95772274  1.53316384  1
  Mo  Mo31  1  2.92114047  12.57465023  3.24795567  1
  Mo  Mo32  1  1.40311891  11.01802329  1.61164556  1
  Mo  Mo33  1  3.08158912  9.59895782  3.19229163  1
  Mo  Mo34  1  4.71164372  8.05768168  1.59314715  1
  Mo  Mo35  1  4.59427860  11.15782879  1.74112451  1
  Mo  Mo36  1  -0.03977039  9.48478995  6.33446975  1
  Mo  Mo37  1  3.18004872  6.45446616  6.43241303  1
  Mo  Mo38  1  0.14746799  6.58649695  6.47682709  1
  Mo  Mo39  1  1.64082797  7.99572243  4.72445261  1
  Mo  Mo40  1  4.75592870  11.07362775  4.72838464  1
  Mo  Mo41  1  3.18244170  9.54101996  6.47192198  1
  Mo  Mo42  1  1.62030397  11.06032240  4.85537132  1
  Mo  Mo43  1  1.51825986  11.09517448  7.96373001  1
  Mo  Mo44  1  1.55543541  8.00359642  11.12059366  1
  Mo  Mo45  1  1.48110417  11.17490730  11.15475068  1
  Mo  Mo46  1  3.25055716  9.51289006  9.54934077  1
  Mo  Mo47  1  4.70029446  7.83747810  11.14084957  1
  Mo  Mo48  1  4.62686678  11.19873778  11.07620939  1
  Mo  Mo49  1  3.12602304  12.69141959  9.54083130  1
  Mo  Mo50  1  1.70916188  8.02701980  8.06753162  1
  Mo  Mo51  1  4.86194456  7.92093443  7.99425288  1
  Mo  Mo52  1  3.02057315  12.55647949  15.74360785  1
  Mo  Mo53  1  1.46037165  8.03976910  14.35776603  1
  Mo  Mo54  1  1.42339468  11.05049232  14.33095674  1
  Mo  Mo55  1  2.96946670  12.66222725  12.64673744  1
  Mo  Mo56  1  -0.01593594  9.48522684  12.72458368  1
  Mo  Mo57  1  3.12646986  9.55395792  12.68556126  1
  Mo  Mo58  1  3.11817884  9.56909028  15.94557118  1
  Mo  Mo59  1  6.17712899  2.35801625  2.34377754  1
  Mo  Mo60  1  9.33517424  3.30278563  3.07688260  1
  Mo  Mo61  1  8.14572538  1.34295688  1.27727411  1
  Mo  Mo62  1  7.87994601  4.71815739  1.47302166  1
  Mo  Mo63  1  6.80948076  3.96968167  3.90645146  1
  Mo  Mo64  1  9.45511107  -0.13376447  3.13542615  1
  Mo  Mo65  1  6.27459566  -0.02819692  -0.01118295  1
  Mo  Mo66  1  6.39407574  3.17557058  6.52151917  1
  Mo  Mo67  1  4.75686206  1.55131472  4.76599708  1
  Mo  Mo68  1  7.91553286  1.48288152  4.68822035  1
  Mo  Mo69  1  9.69274069  3.01364245  6.48896078  1
  Mo  Mo70  1  4.82673502  4.98440345  5.25588228  1
  Mo  Mo71  1  8.38499335  5.10400268  5.16627967  1
  Mo  Mo72  1  7.99369684  1.59782388  7.89928841  1
  Mo  Mo73  1  7.91724071  1.54622096  11.04949939  1
  Mo  Mo74  1  6.33377469  3.13107708  9.51630576  1
  Mo  Mo75  1  7.77229180  4.69993700  11.12605481  1
  Mo  Mo76  1  6.28496192  6.26959126  9.48371758  1
  Mo  Mo77  1  8.06900116  4.84220498  8.01581947  1
  Mo  Mo78  1  9.49081707  3.14023196  9.54868543  1
  Mo  Mo79  1  4.70061220  1.58392277  11.18811336  1
  Mo  Mo80  1  9.49031068  3.21704555  12.65765974  1
  Mo  Mo81  1  6.25782496  3.12877347  15.68343588  1
  Mo  Mo82  1  7.97283524  4.68030664  14.19879686  1
  Mo  Mo83  1  6.30156383  3.18453680  12.69469628  1
  Mo  Mo84  1  7.81641791  1.51613497  14.18271129  1
  Mo  Mo85  1  6.25339647  6.28889395  12.71078186  1
  Mo  Mo86  1  6.18917332  -0.06981765  12.62439636  1
  Mo  Mo87  1  9.49618886  6.37399856  12.72090981  1
  Mo  Mo88  1  9.50503593  6.45223205  15.94765635  1
  Mo  Mo89  1  7.90759929  7.99405430  1.57216639  1
  Mo  Mo90  1  7.84125126  11.05525842  1.53876400  1
  Mo  Mo91  1  6.34156925  9.50443024  3.21312345  1
  Mo  Mo92  1  6.27955042  6.43697061  3.11846679  1
  Mo  Mo93  1  9.44553916  9.57873169  3.10492313  1
  Mo  Mo94  1  9.63233042  6.41842255  3.13887164  1
  Mo  Mo95  1  6.16372435  12.71058327  3.22958634  1
  Mo  Mo96  1  6.30377808  9.58345807  -0.06437904  1
  Mo  Mo97  1  9.47204064  12.57822480  6.39334097  1
  Mo  Mo98  1  4.82487823  7.99184005  4.82024121  1
  Mo  Mo99  1  7.95058353  7.98030212  4.74948454  1
  Mo  Mo100  1  6.37185382  12.73739256  6.39443320  1
  Mo  Mo101  1  7.93570933  11.13340254  4.76770493  1
  Mo  Mo102  1  6.43765574  6.49592127  6.49459073  1
  Mo  Mo103  1  6.33517474  9.51082475  6.35560937  1
  Mo  Mo104  1  7.98274475  11.07253552  7.86129865  1
  Mo  Mo105  1  4.80531738  11.08494723  7.94592665  1
  Mo  Mo106  1  7.93517315  7.97910067  7.96263778  1
  Mo  Mo107  1  6.32058849  12.77681215  9.52697983  1
  Mo  Mo108  1  7.98903997  7.88432486  11.04562693  1
  Mo  Mo109  1  6.34083447  9.53783263  9.62380109  1
  Mo  Mo110  1  7.91658537  11.12545905  11.03857708  1
  Mo  Mo111  1  9.48625949  9.64562584  9.58445101  1
  Mo  Mo112  1  9.41413257  12.67672412  9.45784164  1
  Mo  Mo113  1  9.37053272  9.50937506  15.85432030  1
  Mo  Mo114  1  9.43183663  12.68278104  12.66609970  1
  Mo  Mo115  1  7.90694396  7.90596095  14.18261199  1
  Mo  Mo116  1  9.35521170  12.48339934  15.68184718  1
  Mo  Mo117  1  4.73138331  7.96868476  14.31814786  1
  Mo  Mo118  1  6.39843474  9.43337568  12.64614167  1
  Mo  Mo119  1  7.74042846  11.07104612  14.25152180  1
  Mo  Mo120  1  4.73348833  11.07601080  14.28865764  1
  Mo  Mo121  1  6.35950169  6.37735469  15.83227710  1
