# generated using pymatgen
data_Mo
_symmetry_space_group_name_H-M   'P 1'
_cell_length_a   9.56198085
_cell_length_b   12.74930780
_cell_length_c   15.93663475
_cell_angle_alpha   90.00000000
_cell_angle_beta   90.00000000
_cell_angle_gamma   90.00000000
_symmetry_Int_Tables_number   1
_chemical_formula_structural   Mo
_chemical_formula_sum   Mo122
_cell_volume   1942.81342173
_cell_formula_units_Z   122
loop_
 _symmetry_equiv_pos_site_id
 _symmetry_equiv_pos_as_xyz
  1  'x, y, z'
loop_
 _atom_site_type_symbol
 _atom_site_label
 _atom_site_symmetry_multiplicity
 _atom_site_fract_x
 _atom_site_fract_y
 _atom_site_fract_z
 _atom_site_occupancy
  Mo  Mo0  1  1.84775599  2.48325536  2.61084774  1
  Mo  Mo1  1  4.08307505  1.21255449  1.45919005  1
  Mo  Mo2  1  1.58096381  4.79530857  1.51994785  1
  Mo  Mo3  1  3.82740376  3.49364794  3.41639746  1
  Mo  Mo4  1  1.33331546  0.91553733  0.95186789  1
  Mo  Mo5  1  3.10346351  3.22924874  -0.10046038  1
  Mo  Mo6  1  4.66520407  5.26116471  5.10426084  1
  Mo  Mo7  1  4.73153225  1.63677679  8.03421859  1
  Mo  Mo8  1  4.75681242  1.60038566  4.89498949  1
  Mo  Mo9  1  3.15026062  3.28191410  6.46286640  1
  Mo  Mo10  1  1.50692052  4.70310447  4.77290792  1
  Mo  Mo11  1  1.56956490  1.54247759  4.91028072  1
  Mo  Mo12  1  1.56408389  1.54997426  11.15266552  1
  Mo  Mo13  1  1.53527879  4.71589349  11.17470871  1
  Mo  Mo14  1  3.04655831  3.22185136  9.63954907  1
  Mo  Mo15  1  4.72449232  4.74935546  11.14194180  1
  Mo  Mo16  1  1.51979891  4.77745557  8.05796963  1
  Mo  Mo17  1  1.53701643  1.55784825  8.05105879  1
  Mo  Mo18  1  4.64271405  1.59144923  11.08842251  1
  Mo  Mo19  1  -0.01010462  3.07240445  12.71932111  1
  Mo  Mo20  1  0.02943809  3.14386611  15.89721516  1
  Mo  Mo21  1  -0.02927029  6.39894113  15.90307349  1
  Mo  Mo22  1  4.62726396  1.46868253  14.29094139  1
  Mo  Mo23  1  1.54316271  4.75315841  14.29064351  1
  Mo  Mo24  1  3.06788659  6.35119081  12.71574654  1
  Mo  Mo25  1  1.38044024  1.38633828  14.21518032  1
  Mo  Mo26  1  3.14606050  3.11260846  12.69588780  1
  Mo  Mo27  1  3.11363119  6.28284697  15.88937096  1
  Mo  Mo28  1  1.51605554  7.95954974  1.61504140  1
  Mo  Mo29  1  3.12097892  12.59311885  3.36487397  1
  Mo  Mo30  1  1.58100353  11.06141463  1.69494302  1
  Mo  Mo31  1  3.23354816  9.49780735  3.13495947  1
  Mo  Mo32  1  4.68210385  11.09438013  1.56501725  1
  Mo  Mo33  1  3.11932071  6.47970661  3.13321190  1
  Mo  Mo34  1  3.20415723  12.67245450  6.40055962  1
  Mo  Mo35  1  1.51739600  11.22554707  4.85881681  1
  Mo  Mo36  1  3.12762166  6.51756729  6.51094440  1
  Mo  Mo37  1  0.17684501  6.46182382  6.44419919  1
  Mo  Mo38  1  1.65624828  8.13996635  4.75411163  1
  Mo  Mo39  1  4.80167330  11.13310466  4.89144471  1
  Mo  Mo40  1  3.21278585  9.60435939  6.32019132  1
  Mo  Mo41  1  4.78965876  8.04201314  4.79287588  1
  Mo  Mo42  1  1.44449459  8.19233383  7.99837357  1
  Mo  Mo43  1  1.56285265  7.98042127  11.04056296  1
  Mo  Mo44  1  1.57130254  11.06677649  11.09527377  1
  Mo  Mo45  1  3.20987654  9.53339420  9.50235500  1
  Mo  Mo46  1  4.76185653  7.91447042  11.11006853  1
  Mo  Mo47  1  4.76224378  11.15226834  11.17460942  1
  Mo  Mo48  1  3.16235459  12.70601576  9.52069454  1
  Mo  Mo49  1  3.08078484  6.36425785  9.59119305  1
  Mo  Mo50  1  4.70103916  7.99452098  7.94758486  1
  Mo  Mo51  1  1.61974792  11.18910629  7.99297199  1
  Mo  Mo52  1  4.70775141  11.15941749  8.01728902  1
  Mo  Mo53  1  3.19860671  12.46642012  15.62266815  1
  Mo  Mo54  1  1.53060206  7.88337164  14.35846109  1
  Mo  Mo55  1  1.55462120  10.95795062  14.14448322  1
  Mo  Mo56  1  3.13804750  12.71068256  12.65686539  1
  Mo  Mo57  1  3.07897769  9.57918844  15.99819683  1
  Mo  Mo58  1  3.18240198  9.39886120  12.68625632  1
  Mo  Mo59  1  -0.30341367  12.41746834  15.69028714  1
  Mo  Mo60  1  6.15784616  2.26623911  2.33647945  1
  Mo  Mo61  1  9.16452813  3.30964683  3.32191953  1
  Mo  Mo62  1  8.15021346  1.38884048  1.32216478  1
  Mo  Mo63  1  7.90450133  4.76812197  1.39074692  1
  Mo  Mo64  1  4.78264863  4.91882990  1.46421431  1
  Mo  Mo65  1  9.57443228  6.36264930  3.24792588  1
  Mo  Mo66  1  6.45695843  3.96035799  3.89033609  1
  Mo  Mo67  1  9.63400848  3.11576600  6.48863311  1
  Mo  Mo68  1  6.30357949  3.27871685  6.54760362  1
  Mo  Mo69  1  8.08772795  5.03375240  5.14731458  1
  Mo  Mo70  1  7.82984242  1.62131676  4.84965200  1
  Mo  Mo71  1  7.94332516  1.67489563  8.04222166  1
  Mo  Mo72  1  8.00657523  1.49872879  11.06578355  1
  Mo  Mo73  1  6.29863466  3.18567868  9.54942020  1
  Mo  Mo74  1  8.01202645  4.73072797  11.19337592  1
  Mo  Mo75  1  6.14563304  6.36300675  9.58172043  1
  Mo  Mo76  1  7.98731226  4.87284700  8.06579398  1
  Mo  Mo77  1  9.51748736  3.24094553  9.62039532  1
  Mo  Mo78  1  9.45435644  6.34968154  9.62822959  1
  Mo  Mo79  1  4.66136141  4.76700988  8.03548955  1
  Mo  Mo80  1  9.52323646  6.34028836  12.67305026  1
  Mo  Mo81  1  6.34516368  0.00814342  12.71197338  1
  Mo  Mo82  1  6.32461982  3.10524087  15.66218704  1
  Mo  Mo83  1  7.94623446  4.66376431  14.21041422  1
  Mo  Mo84  1  6.43105271  3.08336647  12.66520606  1
  Mo  Mo85  1  7.93450788  1.51562858  14.17546285  1
  Mo  Mo86  1  6.23641725  6.26888628  12.80252921  1
  Mo  Mo87  1  4.68509259  4.75997988  14.26452927  1
  Mo  Mo88  1  9.45069250  -0.12436334  12.64216993  1
  Mo  Mo89  1  6.35232275  6.30360928  15.76108353  1
  Mo  Mo90  1  7.93231349  7.93295890  1.52235076  1
  Mo  Mo91  1  7.87500118  11.12466470  1.68670165  1
  Mo  Mo92  1  6.32490777  9.59258316  3.16804412  1
  Mo  Mo93  1  6.34657365  6.45891451  3.19084195  1
  Mo  Mo94  1  9.52965083  9.53937168  3.16393336  1
  Mo  Mo95  1  6.35316675  12.68963230  3.18277930  1
  Mo  Mo96  1  9.60775523  12.82020348  3.21551642  1
  Mo  Mo97  1  4.78973820  7.93112197  1.40089474  1
  Mo  Mo98  1  9.57652737  9.60319765  6.38898198  1
  Mo  Mo99  1  9.52286907  12.81285575  6.40672576  1
  Mo  Mo100  1  7.94733662  11.14204109  7.96608327  1
  Mo  Mo101  1  8.01533293  8.00004170  4.66405226  1
  Mo  Mo102  1  6.32460989  12.77254252  6.44637372  1
  Mo  Mo103  1  8.03777330  11.13876440  4.75527336  1
  Mo  Mo104  1  6.31586212  6.58181029  6.57466115  1
  Mo  Mo105  1  6.29593388  9.63064243  6.35317668  1
  Mo  Mo106  1  7.93318727  8.01750746  7.87322382  1
  Mo  Mo107  1  6.34355512  12.72815825  9.51065595  1
  Mo  Mo108  1  7.91350727  7.94397057  11.14154462  1
  Mo  Mo109  1  6.41643668  9.55654949  9.45764306  1
  Mo  Mo110  1  7.98820590  11.04145660  11.11066429  1
  Mo  Mo111  1  9.56049145  9.50563169  9.58666526  1
  Mo  Mo112  1  9.58914760  12.65984420  9.51982076  1
  Mo  Mo113  1  9.39357878  9.46466312  15.89234977  1
  Mo  Mo114  1  9.46930013  9.48847374  12.71237055  1
  Mo  Mo115  1  7.85106148  7.84684149  14.28101202  1
  Mo  Mo116  1  4.82187956  10.98207898  14.19075407  1
  Mo  Mo117  1  4.72607109  7.82706219  14.31387823  1
  Mo  Mo118  1  6.30149432  9.48337998  12.59540261  1
  Mo  Mo119  1  7.80617081  11.00779604  14.13753266  1
  Mo  Mo120  1  6.28645133  9.44465544  15.83585167  1
  Mo  Mo121  1  6.12270613  12.62946034  15.87437762  1
