# generated using pymatgen
data_Mo
_symmetry_space_group_name_H-M   'P 1'
_cell_length_a   15.93663475
_cell_length_b   15.93663475
_cell_length_c   15.93663475
_cell_angle_alpha   90.00000000
_cell_angle_beta   90.00000000
_cell_angle_gamma   90.00000000
_symmetry_Int_Tables_number   1
_chemical_formula_structural   Mo
_chemical_formula_sum   Mo252
_cell_volume   4047.52796193
_cell_formula_units_Z   252
loop_
 _symmetry_equiv_pos_site_id
 _symmetry_equiv_pos_as_xyz
  1  'x, y, z'
loop_
 _atom_site_type_symbol
 _atom_site_label
 _atom_site_symmetry_multiplicity
 _atom_site_fract_x
 _atom_site_fract_y
 _atom_site_fract_z
 _atom_site_occupancy
  Mo  Mo0  1  1.44500099  1.46725270  1.39329877  1
  Mo  Mo1  1  3.14418385  3.11692774  3.15337844  1
  Mo  Mo2  1  1.45830634  1.33551978  4.59863759  1
  Mo  Mo3  1  4.49127134  1.36349081  1.37677630  1
  Mo  Mo4  1  6.13349935  2.88145279  2.83989838  1
  Mo  Mo5  1  4.49809282  1.28069974  4.55376678  1
  Mo  Mo6  1  7.83580004  1.37304286  1.37933808  1
  Mo  Mo7  1  7.69675911  1.48937533  4.66544238  1
  Mo  Mo8  1  1.45720418  7.87326354  1.41907541  1
  Mo  Mo9  1  1.24237238  4.58575920  4.58555069  1
  Mo  Mo10  1  1.48570146  7.72819548  4.67174752  1
  Mo  Mo11  1  2.92260008  6.25316809  2.86711478  1
  Mo  Mo12  1  1.37879196  4.52495176  1.41500437  1
  Mo  Mo13  1  7.94295777  7.86496259  1.23165860  1
  Mo  Mo14  1  4.54407572  4.52065234  1.16656166  1
  Mo  Mo15  1  7.73781704  4.61584519  1.47850267  1
  Mo  Mo16  1  4.58732804  7.87941975  4.57636602  1
  Mo  Mo17  1  7.12196788  7.08866478  3.52586873  1
  Mo  Mo18  1  5.44494737  5.36945439  3.47725455  1
  Mo  Mo19  1  4.62095881  7.78556737  1.43648159  1
  Mo  Mo20  1  2.84255945  2.89703196  6.29787010  1
  Mo  Mo21  1  1.28192105  1.42384150  7.83364536  1
  Mo  Mo22  1  3.01790215  2.93593523  9.45035490  1
  Mo  Mo23  1  5.42652839  3.45475460  5.39529060  1
  Mo  Mo24  1  7.09461248  3.64448496  6.99140663  1
  Mo  Mo25  1  4.73736078  1.50413037  7.75629559  1
  Mo  Mo26  1  6.17091321  2.91710914  9.57445214  1
  Mo  Mo27  1  3.00032717  6.15149137  9.51549155  1
  Mo  Mo28  1  1.51335475  4.68746571  7.77672030  1
  Mo  Mo29  1  1.22291082  7.75641474  7.95633263  1
  Mo  Mo30  1  3.49973464  5.26787696  5.41944875  1
  Mo  Mo31  1  3.56614225  6.98634265  6.98584618  1
  Mo  Mo32  1  7.12526443  5.36203715  8.92193383  1
  Mo  Mo33  1  4.64626877  4.52736459  7.87456429  1
  Mo  Mo34  1  7.83132189  7.86826907  7.82920694  1
  Mo  Mo35  1  6.15565177  6.18992795  6.19538910  1
  Mo  Mo36  1  5.44985248  7.12872978  8.91380167  1
  Mo  Mo37  1  1.47011236  1.44604357  11.02100210  1
  Mo  Mo38  1  3.02733505  3.08009971  12.59689201  1
  Mo  Mo39  1  1.51065396  1.37495923  14.22937931  1
  Mo  Mo40  1  2.92035605  3.01299705  15.63547704  1
  Mo  Mo41  1  4.67291919  1.49415135  11.04741422  1
  Mo  Mo42  1  6.17319696  3.03704597  12.72766178  1
  Mo  Mo43  1  4.62883280  1.44108881  14.19432865  1
  Mo  Mo44  1  7.90952559  1.42739622  10.98118534  1
  Mo  Mo45  1  7.77555857  1.55669644  14.25807518  1
  Mo  Mo46  1  6.24885874  3.05145349  15.71153599  1
  Mo  Mo47  1  1.44230020  4.60082205  10.99022106  1
  Mo  Mo48  1  3.08660345  6.22366794  12.64028335  1
  Mo  Mo49  1  1.44132712  4.67541146  14.14825638  1
  Mo  Mo50  1  1.56930674  7.80523744  11.04076154  1
  Mo  Mo51  1  1.42745579  7.90521625  14.22054218  1
  Mo  Mo52  1  3.01900431  6.29375934  15.76733904  1
  Mo  Mo53  1  7.83560145  7.88691642  14.20544954  1
  Mo  Mo54  1  7.78894335  4.63485000  14.30196299  1
  Mo  Mo55  1  4.62606251  7.81151280  14.30097005  1
  Mo  Mo56  1  4.70164485  7.92205645  11.28105224  1
  Mo  Mo57  1  7.90693403  4.55545477  11.24351923  1
  Mo  Mo58  1  7.91900814  7.77035558  10.96152519  1
  Mo  Mo59  1  4.66326784  4.64716241  11.06667719  1
  Mo  Mo60  1  6.31055983  6.30527741  12.60304822  1
  Mo  Mo61  1  4.63526703  4.72903005  14.20574742  1
  Mo  Mo62  1  6.27989795  6.24418201  15.86315743  1
  Mo  Mo63  1  3.08082456  9.45781186  3.02139729  1
  Mo  Mo64  1  1.46521718  11.04771210  1.44731453  1
  Mo  Mo65  1  1.37772952  10.99598010  4.66924532  1
  Mo  Mo66  1  6.26590747  9.56653843  2.88103575  1
  Mo  Mo67  1  4.66724952  11.05784006  1.40312884  1
  Mo  Mo68  1  4.85150879  10.94543962  4.66760698  1
  Mo  Mo69  1  7.85269982  10.94265939  1.40632610  1
  Mo  Mo70  1  7.88683699  11.22802941  4.47511626  1
  Mo  Mo71  1  3.03858503  15.67042841  2.96908938  1
  Mo  Mo72  1  3.00315704  12.56918908  3.13667725  1
  Mo  Mo73  1  1.50421973  14.18966184  1.49147043  1
  Mo  Mo74  1  1.47668560  14.27088407  4.65855140  1
  Mo  Mo75  1  7.78733480  14.18668303  4.61292595  1
  Mo  Mo76  1  7.86126887  14.24824511  1.45587364  1
  Mo  Mo77  1  6.21233853  15.73844458  2.93076202  1
  Mo  Mo78  1  4.63255631  14.11529088  4.59081325  1
  Mo  Mo79  1  4.67925413  14.08729006  1.44268744  1
  Mo  Mo80  1  6.20373970  12.62141755  2.96533608  1
  Mo  Mo81  1  2.89864052  9.52272013  6.26590747  1
  Mo  Mo82  1  3.23076793  9.29719441  9.30736208  1
  Mo  Mo83  1  1.52277772  10.98168181  8.01868906  1
  Mo  Mo84  1  7.78179421  10.95983720  7.76453697  1
  Mo  Mo85  1  7.17012531  8.98844073  5.39439696  1
  Mo  Mo86  1  5.51355930  8.98107314  7.07726587  1
  Mo  Mo87  1  6.32649647  9.59680314  9.64310378  1
  Mo  Mo88  1  4.50411994  11.28313740  7.84701029  1
  Mo  Mo89  1  3.02290655  12.70859739  6.33149094  1
  Mo  Mo90  1  3.00872742  12.67235520  9.55536789  1
  Mo  Mo91  1  1.39352714  14.23632987  7.94333509  1
  Mo  Mo92  1  3.03633106  15.85213583  6.35146883  1
  Mo  Mo93  1  3.02455483  15.84151141  9.45087123  1
  Mo  Mo94  1  7.82538413  14.20991775  7.76433838  1
  Mo  Mo95  1  4.61651045  14.22501039  7.90269419  1
  Mo  Mo96  1  6.29505016  12.66222725  9.54440587  1
  Mo  Mo97  1  6.14012224  12.64723390  6.23583141  1
  Mo  Mo98  1  6.22401547  15.73596224  6.19490256  1
  Mo  Mo99  1  6.21980542  15.87566844  9.44440721  1
  Mo  Mo100  1  3.03290543  9.43504382  12.68000082  1
  Mo  Mo101  1  1.41894633  11.01405155  11.04513047  1
  Mo  Mo102  1  1.50085368  11.01037768  14.21081140  1
  Mo  Mo103  1  3.18356372  9.47508896  15.89691728  1
  Mo  Mo104  1  6.25354541  9.46479220  12.67146156  1
  Mo  Mo105  1  4.54494950  11.02745619  11.10599749  1
  Mo  Mo106  1  4.67669235  11.05724429  14.26810385  1
  Mo  Mo107  1  7.85758507  11.11970002  11.11592686  1
  Mo  Mo108  1  7.81275398  11.04294601  14.24824511  1
  Mo  Mo109  1  6.19826862  9.38066067  15.73586294  1
  Mo  Mo110  1  3.07738899  12.56531662  12.73034271  1
  Mo  Mo111  1  1.45669778  14.22242876  11.05237890  1
  Mo  Mo112  1  1.42539049  14.25668507  14.08232538  1
  Mo  Mo113  1  3.05715294  15.81728375  12.53463488  1
  Mo  Mo114  1  2.96261544  12.58060785  15.83048981  1
  Mo  Mo115  1  3.08756660  15.77498465  15.78421896  1
  Mo  Mo116  1  7.86701797  14.27396217  14.27098336  1
  Mo  Mo117  1  7.81900948  14.20872623  11.02914418  1
  Mo  Mo118  1  6.29225008  12.68923513  12.71951970  1
  Mo  Mo119  1  4.69101050  14.23335106  11.07313128  1
  Mo  Mo120  1  4.62768099  14.24814582  14.20157708  1
  Mo  Mo121  1  6.22929789  15.73109685  12.63790030  1
  Mo  Mo122  1  6.20638091  15.76525387  15.86554048  1
  Mo  Mo123  1  6.29112806  12.47863324  15.80715580  1
  Mo  Mo124  1  9.38708497  2.99352556  3.01331479  1
  Mo  Mo125  1  11.06925883  1.44550738  1.41613631  1
  Mo  Mo126  1  11.00839181  1.48804479  4.69561772  1
  Mo  Mo127  1  15.72186253  2.94548728  3.00856855  1
  Mo  Mo128  1  12.47416503  3.05492876  3.03094934  1
  Mo  Mo129  1  14.20793188  1.52465437  1.43861640  1
  Mo  Mo130  1  14.24397548  1.40654455  4.70494140  1
  Mo  Mo131  1  9.57255563  6.19154644  2.98765730  1
  Mo  Mo132  1  11.01434943  4.65500661  1.41551076  1
  Mo  Mo133  1  11.12436682  4.75415135  4.67757606  1
  Mo  Mo134  1  11.06488991  7.89119598  1.46041136  1
  Mo  Mo135  1  11.13975734  7.96911173  4.54918934  1
  Mo  Mo136  1  7.97593320  4.59180619  4.60542928  1
  Mo  Mo137  1  15.81440424  6.32300133  3.01748512  1
  Mo  Mo138  1  14.10317705  7.90494815  4.64090691  1
  Mo  Mo139  1  14.31467258  7.90160196  1.54534717  1
  Mo  Mo140  1  14.21359162  4.62675756  4.48556196  1
  Mo  Mo141  1  14.22868426  4.66731903  1.46367813  1
  Mo  Mo142  1  12.64852472  6.23825418  2.89897812  1
  Mo  Mo143  1  9.56261633  2.93133793  6.30483059  1
  Mo  Mo144  1  9.32542360  3.11907248  9.38454305  1
  Mo  Mo145  1  10.98545497  1.45330194  7.90801633  1
  Mo  Mo146  1  7.81199934  1.21895894  7.83115309  1
  Mo  Mo147  1  15.65305202  2.99682211  9.44625407  1
  Mo  Mo148  1  15.65900964  2.95196122  6.25870868  1
  Mo  Mo149  1  12.70244119  3.05817567  6.20036371  1
  Mo  Mo150  1  12.57365729  3.07597902  9.43670202  1
  Mo  Mo151  1  14.06286382  1.52771262  7.76868744  1
  Mo  Mo152  1  11.07750020  7.72484929  7.85858794  1
  Mo  Mo153  1  8.93919107  7.08371003  5.41890264  1
  Mo  Mo154  1  9.01922177  5.41607277  7.13391291  1
  Mo  Mo155  1  9.60552113  6.19103011  9.60625590  1
  Mo  Mo156  1  11.22117815  4.65752867  7.95022607  1
  Mo  Mo157  1  15.81261695  6.11482221  9.44695906  1
  Mo  Mo158  1  15.69922358  6.30274542  6.26741673  1
  Mo  Mo159  1  12.58726052  6.31904944  6.28898332  1
  Mo  Mo160  1  12.79190479  6.28946986  9.50099468  1
  Mo  Mo161  1  14.22659909  4.75155978  7.86481365  1
  Mo  Mo162  1  14.15967515  7.87681825  7.80771979  1
  Mo  Mo163  1  9.45575648  3.08387287  12.66897922  1
  Mo  Mo164  1  10.89072880  1.51500303  11.01454801  1
  Mo  Mo165  1  11.04870504  1.56047953  14.12651107  1
  Mo  Mo166  1  9.42965217  3.03840630  15.89741375  1
  Mo  Mo167  1  15.81003532  3.07972240  12.63720524  1
  Mo  Mo168  1  12.56581309  3.02002704  12.56382722  1
  Mo  Mo169  1  14.12512095  1.43375101  11.00461865  1
  Mo  Mo170  1  14.10794315  1.40248343  14.21170504  1
  Mo  Mo171  1  15.67062700  2.99949311  15.67171923  1
  Mo  Mo172  1  12.61168677  3.09961092  15.77369383  1
  Mo  Mo173  1  9.55847578  6.29661900  12.64554591  1
  Mo  Mo174  1  11.01683177  4.60634278  11.08296136  1
  Mo  Mo175  1  10.95556757  4.69330418  14.19125054  1
  Mo  Mo176  1  11.08127336  7.92409197  10.98843378  1
  Mo  Mo177  1  11.05704571  7.89389677  14.20336437  1
  Mo  Mo178  1  9.49081707  6.29506009  15.79901372  1
  Mo  Mo179  1  15.78868718  6.24153087  12.59351603  1
  Mo  Mo180  1  12.63204197  6.30502918  12.60741714  1
  Mo  Mo181  1  14.21776195  4.64103599  11.21095090  1
  Mo  Mo182  1  14.16136315  4.64176084  14.25142251  1
  Mo  Mo183  1  14.20683965  7.83157013  11.06796801  1
  Mo  Mo184  1  14.21259868  7.78950933  14.26740879  1
  Mo  Mo185  1  15.88251970  6.19213227  15.87497338  1
  Mo  Mo186  1  12.77879802  6.29623176  15.86087368  1
  Mo  Mo187  1  9.40846290  9.33417137  3.08935388  1
  Mo  Mo188  1  10.97870300  11.05337184  1.50540133  1
  Mo  Mo189  1  11.11443745  11.11463604  4.66634595  1
  Mo  Mo190  1  12.63561654  9.48893049  3.07744857  1
  Mo  Mo191  1  14.18618656  11.02477526  1.46309229  1
  Mo  Mo192  1  14.24308184  11.01981058  4.70709607  1
  Mo  Mo193  1  15.79692855  9.47489037  3.03872404  1
  Mo  Mo194  1  9.47708476  15.81331201  3.06037999  1
  Mo  Mo195  1  9.39854346  12.65060989  2.98112378  1
  Mo  Mo196  1  11.01643459  14.20475448  1.40491613  1
  Mo  Mo197  1  11.02844913  14.17556214  4.62632067  1
  Mo  Mo198  1  15.86544119  15.72911097  2.99640507  1
  Mo  Mo199  1  12.69340546  15.71094023  3.02235051  1
  Mo  Mo200  1  15.76376446  12.54416707  3.14261501  1
  Mo  Mo201  1  12.66302160  12.60324681  3.01421836  1
  Mo  Mo202  1  14.25877024  14.22292522  1.42484437  1
  Mo  Mo203  1  14.21210221  14.12383014  4.58571949  1
  Mo  Mo204  1  9.44093193  9.40617915  9.35826995  1
  Mo  Mo205  1  9.70860782  9.62797143  6.19673949  1
  Mo  Mo206  1  11.00968262  11.13767217  7.83852068  1
  Mo  Mo207  1  12.60821149  9.42118242  6.19728561  1
  Mo  Mo208  1  12.63134692  9.43712898  9.48783826  1
  Mo  Mo209  1  14.14815709  11.10172786  7.84691100  1
  Mo  Mo210  1  15.80030454  9.42483643  6.22747089  1
  Mo  Mo211  1  15.80973744  9.39566395  9.42448890  1
  Mo  Mo212  1  9.45297625  12.68844078  6.27843833  1
  Mo  Mo213  1  9.35434785  12.63164480  9.42587901  1
  Mo  Mo214  1  10.97939805  14.24566348  7.82205779  1
  Mo  Mo215  1  9.50674378  15.83525591  6.16250304  1
  Mo  Mo216  1  9.43529205  15.79424762  9.34566958  1
  Mo  Mo217  1  12.66858204  12.56700461  6.22123524  1
  Mo  Mo218  1  12.67434108  12.62886457  9.38653886  1
  Mo  Mo219  1  14.10734739  14.21905277  7.81858251  1
  Mo  Mo220  1  15.76197718  12.62459495  6.25844058  1
  Mo  Mo221  1  15.80437558  12.59361532  9.39467101  1
  Mo  Mo222  1  12.60920443  15.78461614  6.25246310  1
  Mo  Mo223  1  12.58189867  15.79216245  9.45320463  1
  Mo  Mo224  1  15.81142543  15.74499796  6.24611824  1
  Mo  Mo225  1  15.73536647  15.82751100  9.43094299  1
  Mo  Mo226  1  9.45338336  9.37915141  12.69985955  1
  Mo  Mo227  1  11.00432077  10.98297263  11.04602411  1
  Mo  Mo228  1  11.03877567  11.07154258  14.15153307  1
  Mo  Mo229  1  9.57358828  9.50118333  15.76098424  1
  Mo  Mo230  1  12.57713257  9.42905641  12.63601372  1
  Mo  Mo231  1  14.24586206  11.13389901  11.11652262  1
  Mo  Mo232  1  14.30384957  11.03152723  14.22262734  1
  Mo  Mo233  1  15.79236104  9.53021680  12.56839473  1
  Mo  Mo234  1  12.63998547  9.42129164  15.73377777  1
  Mo  Mo235  1  15.83088699  9.40802601  15.83168134  1
  Mo  Mo236  1  9.39154326  12.67493684  12.81275646  1
  Mo  Mo237  1  10.99885961  14.29054422  11.03331452  1
  Mo  Mo238  1  11.04165519  14.22630121  14.19869757  1
  Mo  Mo239  1  9.37611302  15.93405312  12.63512008  1
  Mo  Mo240  1  9.41066722  12.58577112  15.86276026  1
  Mo  Mo241  1  9.49281288  15.84041918  15.79424762  1
  Mo  Mo242  1  12.69380264  12.63075115  12.63462361  1
  Mo  Mo243  1  14.22937931  14.27555087  10.99419281  1
  Mo  Mo244  1  14.27356500  14.13594396  14.25112463  1
  Mo  Mo245  1  15.90307349  12.61119030  12.57047989  1
  Mo  Mo246  1  12.54506071  15.87060446  12.57584175  1
  Mo  Mo247  1  15.69257090  15.78680060  12.63015539  1
  Mo  Mo248  1  15.87169669  15.78749565  15.90873323  1
  Mo  Mo249  1  12.52232246  15.81708517  15.77875781  1
  Mo  Mo250  1  12.73004483  12.66451100  15.79126881  1
  Mo  Mo251  1  15.97009672  12.59421108  15.79424762  1
