# generated using pymatgen
data_Mo
_symmetry_space_group_name_H-M   'P 1'
_cell_length_a   15.93663475
_cell_length_b   15.93663475
_cell_length_c   15.93663475
_cell_angle_alpha   90.00000000
_cell_angle_beta   90.00000000
_cell_angle_gamma   90.00000000
_symmetry_Int_Tables_number   1
_chemical_formula_structural   Mo
_chemical_formula_sum   Mo252
_cell_volume   4047.52796193
_cell_formula_units_Z   252
loop_
 _symmetry_equiv_pos_site_id
 _symmetry_equiv_pos_as_xyz
  1  'x, y, z'
loop_
 _atom_site_type_symbol
 _atom_site_label
 _atom_site_symmetry_multiplicity
 _atom_site_fract_x
 _atom_site_fract_y
 _atom_site_fract_z
 _atom_site_occupancy
  Mo  Mo0  1  1.53659940  1.54427480  1.46017306  1
  Mo  Mo1  1  3.21734343  3.03030393  3.11955902  1
  Mo  Mo2  1  1.56312074  1.49126191  4.54295370  1
  Mo  Mo3  1  4.68934236  1.41285962  1.46896055  1
  Mo  Mo4  1  6.26854868  2.89712133  2.94758237  1
  Mo  Mo5  1  4.60875562  1.21284245  4.61125782  1
  Mo  Mo6  1  7.90266440  1.34673997  1.37288399  1
  Mo  Mo7  1  7.60397910  1.52613385  4.62411635  1
  Mo  Mo8  1  1.53957821  7.83522413  1.39981243  1
  Mo  Mo9  1  1.19680652  4.52011615  4.55026171  1
  Mo  Mo10  1  1.50556020  7.78511062  4.72965560  1
  Mo  Mo11  1  2.89847172  6.24130250  2.96997310  1
  Mo  Mo12  1  1.42317624  4.54815669  1.40502535  1
  Mo  Mo13  1  7.86111992  7.79086965  1.22244414  1
  Mo  Mo14  1  4.55083762  4.58447831  1.29812578  1
  Mo  Mo15  1  7.94442732  4.61027481  1.46658743  1
  Mo  Mo16  1  4.66768641  7.82474865  4.56099536  1
  Mo  Mo17  1  7.09694588  7.01674638  3.54191459  1
  Mo  Mo18  1  5.41544722  5.36986149  3.49382666  1
  Mo  Mo19  1  4.71505943  7.77388050  1.53157514  1
  Mo  Mo20  1  2.91575875  3.01588649  6.34247282  1
  Mo  Mo21  1  1.38942632  1.46296321  7.90292256  1
  Mo  Mo22  1  2.98708140  2.93904312  9.43306787  1
  Mo  Mo23  1  5.36773661  3.57072962  5.43430309  1
  Mo  Mo24  1  7.11617906  3.45863699  7.07923189  1
  Mo  Mo25  1  4.72726262  1.42984877  7.82363656  1
  Mo  Mo26  1  6.10749434  2.98943466  9.57986364  1
  Mo  Mo27  1  2.83735647  6.23345830  9.54677899  1
  Mo  Mo28  1  1.44682799  4.78844738  7.86599524  1
  Mo  Mo29  1  1.28865317  7.86141781  7.94577771  1
  Mo  Mo30  1  3.41645703  5.39358275  5.39815026  1
  Mo  Mo31  1  3.51258324  7.19558421  7.00285519  1
  Mo  Mo32  1  7.00300413  5.35604974  8.89687210  1
  Mo  Mo33  1  4.53532795  4.58257188  7.96905215  1
  Mo  Mo34  1  7.78622271  7.87843674  7.94651248  1
  Mo  Mo35  1  6.24509551  6.31587205  6.20741356  1
  Mo  Mo36  1  5.37299917  7.19692468  9.02659929  1
  Mo  Mo37  1  1.34111001  1.33671130  11.09944411  1
  Mo  Mo38  1  3.09873713  3.13403604  12.65487952  1
  Mo  Mo39  1  1.42652243  1.52416783  14.20554883  1
  Mo  Mo40  1  2.96286367  2.98873960  15.69028714  1
  Mo  Mo41  1  4.54926878  1.38727164  11.11374240  1
  Mo  Mo42  1  6.25998957  3.03189263  12.58487748  1
  Mo  Mo43  1  4.68543019  1.47942610  14.23136519  1
  Mo  Mo44  1  7.84554075  1.55170197  11.05496054  1
  Mo  Mo45  1  7.88636038  1.50370341  14.11787252  1
  Mo  Mo46  1  6.21127609  3.05249607  15.72146536  1
  Mo  Mo47  1  1.38795677  4.55785768  10.97602207  1
  Mo  Mo48  1  3.03511968  6.24145144  12.79051468  1
  Mo  Mo49  1  1.40766656  4.70062213  14.26869961  1
  Mo  Mo50  1  1.50012883  7.74479739  11.18434020  1
  Mo  Mo51  1  1.49166901  7.85159766  14.22640050  1
  Mo  Mo52  1  3.10490327  6.29040322  15.82751100  1
  Mo  Mo53  1  7.86212279  7.83240419  14.23662775  1
  Mo  Mo54  1  7.86773288  4.60980813  14.14895144  1
  Mo  Mo55  1  4.68014777  7.76017798  14.30077146  1
  Mo  Mo56  1  4.47676454  7.90765887  11.29902439  1
  Mo  Mo57  1  7.91717120  4.60179513  11.16080760  1
  Mo  Mo58  1  7.75999925  7.74460873  11.10093351  1
  Mo  Mo59  1  4.63000446  4.64643757  11.00561158  1
  Mo  Mo60  1  6.12780983  6.24562177  12.66580182  1
  Mo  Mo61  1  4.68955088  4.64025157  14.19383218  1
  Mo  Mo62  1  6.30602211  6.26250170  15.68045707  1
  Mo  Mo63  1  3.03254797  9.40708272  3.02585558  1
  Mo  Mo64  1  1.53287589  11.05823723  1.54397692  1
  Mo  Mo65  1  1.46666687  10.98356839  4.69712699  1
  Mo  Mo66  1  6.23550375  9.56070989  2.86912051  1
  Mo  Mo67  1  4.68414930  11.07789738  1.37699475  1
  Mo  Mo68  1  4.70338249  11.03391028  4.61455437  1
  Mo  Mo69  1  7.92006065  11.02983924  1.39929611  1
  Mo  Mo70  1  7.93563983  11.14561566  4.62078008  1
  Mo  Mo71  1  3.09476539  15.76793480  2.93433660  1
  Mo  Mo72  1  3.05662669  12.52927302  3.06428223  1
  Mo  Mo73  1  1.45585378  14.15749069  1.41369369  1
  Mo  Mo74  1  1.45826662  14.12571672  4.66373453  1
  Mo  Mo75  1  7.84262151  14.22173370  4.57330778  1
  Mo  Mo76  1  7.82849202  14.18578939  1.29867190  1
  Mo  Mo77  1  6.23477890  15.73993398  2.98448983  1
  Mo  Mo78  1  4.64404459  14.17873954  4.61383945  1
  Mo  Mo79  1  4.67595758  14.11290783  1.44934012  1
  Mo  Mo80  1  6.22999295  12.59252309  2.98633669  1
  Mo  Mo81  1  2.83847848  9.59415200  6.27527086  1
  Mo  Mo82  1  3.10985803  9.40166128  9.43250190  1
  Mo  Mo83  1  1.40917583  10.97880229  7.96189307  1
  Mo  Mo84  1  7.74637615  11.00183842  7.74706128  1
  Mo  Mo85  1  7.14434868  8.97869009  5.51269544  1
  Mo  Mo86  1  5.31726563  9.02456377  7.02800628  1
  Mo  Mo87  1  6.27762412  9.68793488  9.45796080  1
  Mo  Mo88  1  4.47986250  11.36396245  7.94425852  1
  Mo  Mo89  1  3.01323535  12.56750108  6.22024231  1
  Mo  Mo90  1  3.01288782  12.65041130  9.43006920  1
  Mo  Mo91  1  1.48914695  14.24685500  7.74360586  1
  Mo  Mo92  1  3.10260959  15.73675658  6.26644365  1
  Mo  Mo93  1  2.95469180  15.72772086  9.43407074  1
  Mo  Mo94  1  7.87645087  14.13207151  7.87159541  1
  Mo  Mo95  1  4.62574477  14.26016035  7.75388276  1
  Mo  Mo96  1  6.24743884  12.68754714  9.39710370  1
  Mo  Mo97  1  6.24678351  12.76886865  6.16322788  1
  Mo  Mo98  1  6.24278197  15.81341130  6.20746321  1
  Mo  Mo99  1  6.31297267  15.80020524  9.43736729  1
  Mo  Mo100  1  3.09199509  9.46220064  12.70700870  1
  Mo  Mo101  1  1.41654342  10.93958129  11.07541504  1
  Mo  Mo102  1  1.52178478  11.03053430  14.34614867  1
  Mo  Mo103  1  3.06894903  9.41031969  15.86355461  1
  Mo  Mo104  1  6.25438940  9.43063518  12.66272372  1
  Mo  Mo105  1  4.60861661  11.12893433  11.06677649  1
  Mo  Mo106  1  4.52660996  11.00024973  14.24457124  1
  Mo  Mo107  1  7.80627010  10.95199300  11.15604150  1
  Mo  Mo108  1  7.70009537  11.08921686  14.23265600  1
  Mo  Mo109  1  6.21938838  9.40677491  15.76853056  1
  Mo  Mo110  1  2.97725132  12.67791565  12.53036525  1
  Mo  Mo111  1  1.41279012  14.23116660  10.96460330  1
  Mo  Mo112  1  1.49377404  14.23176236  14.20932199  1
  Mo  Mo113  1  3.01805109  15.80060242  12.65388658  1
  Mo  Mo114  1  3.05276416  12.64534732  15.77121149  1
  Mo  Mo115  1  3.10114997  15.82979476  15.79712714  1
  Mo  Mo116  1  7.85448711  14.30702697  14.24804652  1
  Mo  Mo117  1  7.82467915  14.15967515  11.03103076  1
  Mo  Mo118  1  6.24186847  12.63521937  12.62241049  1
  Mo  Mo119  1  4.60421790  14.27823180  11.01276073  1
  Mo  Mo120  1  4.66890773  14.22788991  14.19879686  1
  Mo  Mo121  1  6.30820657  15.83237639  12.57226718  1
  Mo  Mo122  1  6.31779834  15.90078973  15.77955216  1
  Mo  Mo123  1  6.23811517  12.63343208  15.72474205  1
  Mo  Mo124  1  9.38978576  3.08101321  3.11863559  1
  Mo  Mo125  1  11.01812259  1.43253963  1.37540605  1
  Mo  Mo126  1  11.06786872  1.35668919  4.64947595  1
  Mo  Mo127  1  15.76704116  3.02955923  2.99491567  1
  Mo  Mo128  1  12.62856669  2.90256262  3.03531826  1
  Mo  Mo129  1  14.19889615  1.46197027  1.40929498  1
  Mo  Mo130  1  14.37514243  1.36348088  4.62368939  1
  Mo  Mo131  1  9.65237781  6.19159608  2.84428716  1
  Mo  Mo132  1  11.02328586  4.55325045  1.37855366  1
  Mo  Mo133  1  10.93560954  4.55767895  4.71757156  1
  Mo  Mo134  1  11.05019444  7.90848301  1.27447403  1
  Mo  Mo135  1  11.31133681  7.88369931  4.59120050  1
  Mo  Mo136  1  7.86000784  4.63210949  4.60155683  1
  Mo  Mo137  1  15.73904034  6.27808087  3.11217157  1
  Mo  Mo138  1  14.12422731  7.84890680  4.68731677  1
  Mo  Mo139  1  14.28538094  7.86220223  1.45473177  1
  Mo  Mo140  1  14.05601256  4.54718361  4.61494161  1
  Mo  Mo141  1  14.20465519  4.68285849  1.40405227  1
  Mo  Mo142  1  12.67324885  6.10049414  2.96561410  1
  Mo  Mo143  1  9.51792425  2.87687535  6.30784912  1
  Mo  Mo144  1  9.22301210  3.16456884  9.29061124  1
  Mo  Mo145  1  11.00660452  1.43686883  7.89579328  1
  Mo  Mo146  1  7.93029783  1.24263055  7.91520519  1
  Mo  Mo147  1  15.72712510  3.02036464  9.38163375  1
  Mo  Mo148  1  15.80924097  2.98250396  6.22134447  1
  Mo  Mo149  1  12.67513543  2.97608959  6.29438489  1
  Mo  Mo150  1  12.61238182  3.00887636  9.46817812  1
  Mo  Mo151  1  14.13058211  1.45833613  7.83499576  1
  Mo  Mo152  1  11.02427879  7.80936806  7.95687874  1
  Mo  Mo153  1  8.98221501  7.07729566  5.25595179  1
  Mo  Mo154  1  8.95338013  5.38128026  7.14350468  1
  Mo  Mo155  1  9.54464418  6.28659034  9.68468797  1
  Mo  Mo156  1  11.16676522  4.51557843  7.91884927  1
  Mo  Mo157  1  15.70736566  6.19664020  9.50494656  1
  Mo  Mo158  1  15.76624681  6.32655604  6.29212100  1
  Mo  Mo159  1  12.50276161  6.18960028  6.15951430  1
  Mo  Mo160  1  12.63710595  6.29422602  9.49799601  1
  Mo  Mo161  1  14.24457124  4.60675981  7.91498674  1
  Mo  Mo162  1  14.20435731  7.78024523  7.86951024  1
  Mo  Mo163  1  9.43747651  3.07327824  12.59371461  1
  Mo  Mo164  1  10.97582348  1.49850042  11.01742753  1
  Mo  Mo165  1  11.09428084  1.47842324  14.10645374  1
  Mo  Mo166  1  9.41819368  3.01756456  15.78163733  1
  Mo  Mo167  1  15.76753762  3.06787666  12.61635357  1
  Mo  Mo168  1  12.58726052  3.09724773  12.52033659  1
  Mo  Mo169  1  14.21617325  1.45435445  10.94087211  1
  Mo  Mo170  1  14.15034155  1.52660053  14.22183299  1
  Mo  Mo171  1  15.75691320  3.11999591  15.75949484  1
  Mo  Mo172  1  12.52937231  3.08284022  15.66308068  1
  Mo  Mo173  1  9.53348357  6.29162453  12.67731989  1
  Mo  Mo174  1  11.07759950  4.66483668  11.11860779  1
  Mo  Mo175  1  11.07630868  4.64856245  14.20157708  1
  Mo  Mo176  1  11.09577024  7.89269531  11.08405359  1
  Mo  Mo177  1  11.06270545  7.88406669  14.22163441  1
  Mo  Mo178  1  9.40984308  6.21983520  15.70339391  1
  Mo  Mo179  1  15.83942624  6.19534938  12.72825754  1
  Mo  Mo180  1  12.71157620  6.37707667  12.59411179  1
  Mo  Mo181  1  14.14309311  4.59443747  10.99458999  1
  Mo  Mo182  1  14.12114921  4.80237828  14.22610262  1
  Mo  Mo183  1  14.32072949  7.88913067  10.94285798  1
  Mo  Mo184  1  14.31149518  7.99263440  14.22391816  1
  Mo  Mo185  1  15.76416164  6.23424272  15.79335398  1
  Mo  Mo186  1  12.65130494  6.28720596  15.82343996  1
  Mo  Mo187  1  9.38822685  9.40457059  3.07764716  1
  Mo  Mo188  1  10.96778069  10.97552560  1.38896957  1
  Mo  Mo189  1  11.11920355  11.00809393  4.54094797  1
  Mo  Mo190  1  12.61397052  9.39489938  2.96059977  1
  Mo  Mo191  1  14.24884087  11.07720232  1.51042559  1
  Mo  Mo192  1  14.25430202  10.96450400  4.65704213  1
  Mo  Mo193  1  15.78272956  9.42185762  3.02498179  1
  Mo  Mo194  1  9.46928028  15.77518324  3.00590748  1
  Mo  Mo195  1  9.40315069  12.66778769  2.95487053  1
  Mo  Mo196  1  11.05406690  14.25807518  1.48091551  1
  Mo  Mo197  1  11.03182511  14.14031289  4.55184048  1
  Mo  Mo198  1  15.94040791  15.81420565  3.06605959  1
  Mo  Mo199  1  12.57296224  15.70607484  3.00851890  1
  Mo  Mo200  1  15.81827669  12.60980019  3.12431518  1
  Mo  Mo201  1  12.63859535  12.65339011  2.99353549  1
  Mo  Mo202  1  14.23007437  14.18231411  1.34921238  1
  Mo  Mo203  1  14.14994437  14.14259664  4.63773944  1
  Mo  Mo204  1  9.38507924  9.44162699  9.55573528  1
  Mo  Mo205  1  9.62983815  9.50174931  6.33760743  1
  Mo  Mo206  1  11.13092020  11.01921482  7.92531329  1
  Mo  Mo207  1  12.66183007  9.42915570  6.29204156  1
  Mo  Mo208  1  12.65339011  9.54617330  9.48767939  1
  Mo  Mo209  1  14.21696760  10.98128463  7.92732895  1
  Mo  Mo210  1  15.70389038  9.44009787  6.28779179  1
  Mo  Mo211  1  15.79841796  9.32041920  9.52304780  1
  Mo  Mo212  1  9.37434559  12.58457960  6.30869311  1
  Mo  Mo213  1  9.39267521  12.58706194  9.47711455  1
  Mo  Mo214  1  10.99111471  14.25757872  7.76953144  1
  Mo  Mo215  1  9.42228458  15.76674327  6.13185108  1
  Mo  Mo216  1  9.42448890  15.76058707  9.43269056  1
  Mo  Mo217  1  12.68605773  12.59004075  6.21399674  1
  Mo  Mo218  1  12.63541796  12.56293357  9.45044427  1
  Mo  Mo219  1  14.27157912  14.19552017  7.78553758  1
  Mo  Mo220  1  15.78074368  12.55945830  6.28179446  1
  Mo  Mo221  1  15.85809345  12.64077981  9.43700983  1
  Mo  Mo222  1  12.74474029  15.70637272  6.13563417  1
  Mo  Mo223  1  12.56333075  15.84588033  9.41085588  1
  Mo  Mo224  1  15.90088903  15.79762361  6.22219839  1
  Mo  Mo225  1  15.81271625  15.81450353  9.48775883  1
  Mo  Mo226  1  9.45561747  9.53539993  12.64107770  1
  Mo  Mo227  1  11.03033571  11.01832117  11.08385500  1
  Mo  Mo228  1  11.10510385  11.10460738  14.19591734  1
  Mo  Mo229  1  9.36371124  9.43756588  15.74420361  1
  Mo  Mo230  1  12.68238386  9.41418222  12.68258245  1
  Mo  Mo231  1  14.21577608  11.03500251  11.11830990  1
  Mo  Mo232  1  14.25956459  11.04016578  14.32519771  1
  Mo  Mo233  1  15.88956955  9.43892620  12.67900788  1
  Mo  Mo234  1  12.76648561  9.44281851  15.85898710  1
  Mo  Mo235  1  15.93067713  9.45154643  15.82790818  1
  Mo  Mo236  1  9.41499642  12.62032532  12.63293561  1
  Mo  Mo237  1  11.02457668  14.26582009  10.94702832  1
  Mo  Mo238  1  10.88794858  14.27028831  14.11241136  1
  Mo  Mo239  1  9.49660590  15.91111628  12.57931703  1
  Mo  Mo240  1  9.41985189  12.65696468  15.79911301  1
  Mo  Mo241  1  9.49605978  15.73546577  15.71272752  1
  Mo  Mo242  1  12.69995884  12.72934977  12.70095178  1
  Mo  Mo243  1  14.16970381  14.17576073  11.06498920  1
  Mo  Mo244  1  14.15500835  14.23613128  14.24020232  1
  Mo  Mo245  1  15.81341130  12.63601372  12.72200204  1
  Mo  Mo246  1  12.50971216  15.88778226  12.53473417  1
  Mo  Mo247  1  15.80189323  15.84339799  12.68059658  1
  Mo  Mo248  1  15.79732573  15.90168338  15.83575238  1
  Mo  Mo249  1  12.53076242  15.84161070  15.75492733  1
  Mo  Mo250  1  12.66262442  12.74374736  15.82324137  1
  Mo  Mo251  1  15.81768093  12.62469424  15.82959617  1
