# generated using pymatgen
data_Mo
_symmetry_space_group_name_H-M   'P 1'
_cell_length_a   15.93663475
_cell_length_b   15.93663475
_cell_length_c   15.93663475
_cell_angle_alpha   90.00000000
_cell_angle_beta   90.00000000
_cell_angle_gamma   90.00000000
_symmetry_Int_Tables_number   1
_chemical_formula_structural   Mo
_chemical_formula_sum   Mo252
_cell_volume   4047.52796193
_cell_formula_units_Z   252
loop_
 _symmetry_equiv_pos_site_id
 _symmetry_equiv_pos_as_xyz
  1  'x, y, z'
loop_
 _atom_site_type_symbol
 _atom_site_label
 _atom_site_symmetry_multiplicity
 _atom_site_fract_x
 _atom_site_fract_y
 _atom_site_fract_z
 _atom_site_occupancy
  Mo  Mo0  1  1.37815648  1.48930582  1.42843880  1
  Mo  Mo1  1  3.24149165  3.18968021  3.11021548  1
  Mo  Mo2  1  1.47300180  1.51783290  4.52026509  1
  Mo  Mo3  1  4.70081078  1.44145620  1.45456297  1
  Mo  Mo4  1  6.31773877  2.86376858  3.01048492  1
  Mo  Mo5  1  4.59618504  1.14446882  4.53304419  1
  Mo  Mo6  1  7.88921011  1.32488543  1.40942406  1
  Mo  Mo7  1  7.76345467  1.55408502  4.59392114  1
  Mo  Mo8  1  1.43939089  7.82514583  1.42963032  1
  Mo  Mo9  1  1.33149839  4.65082635  4.50413980  1
  Mo  Mo10  1  1.47636786  7.76598666  4.73880054  1
  Mo  Mo11  1  2.86676725  6.29354090  2.82228369  1
  Mo  Mo12  1  1.53693700  4.62905124  1.28346011  1
  Mo  Mo13  1  7.91902800  7.90105584  1.28078911  1
  Mo  Mo14  1  4.74324890  4.56571181  1.27001574  1
  Mo  Mo15  1  7.76211420  4.61227061  1.49707059  1
  Mo  Mo16  1  4.69666031  7.88584405  4.75988059  1
  Mo  Mo17  1  7.15956047  7.10466100  3.55023540  1
  Mo  Mo18  1  5.44065788  5.43693437  3.52870853  1
  Mo  Mo19  1  4.66758712  7.77179534  1.51460585  1
  Mo  Mo20  1  2.90747766  2.92829954  6.33213635  1
  Mo  Mo21  1  1.34247034  1.42966011  7.79581447  1
  Mo  Mo22  1  3.12660887  3.00413012  9.40363723  1
  Mo  Mo23  1  5.40710655  3.53409025  5.37833124  1
  Mo  Mo24  1  6.95947378  3.46646133  7.11397474  1
  Mo  Mo25  1  4.64774824  1.43149705  7.78258856  1
  Mo  Mo26  1  6.27030618  2.88342873  9.60569986  1
  Mo  Mo27  1  2.90772589  6.25055667  9.50389405  1
  Mo  Mo28  1  1.50213457  4.70473288  7.87466358  1
  Mo  Mo29  1  1.19236809  7.94662171  7.79920039  1
  Mo  Mo30  1  3.62485460  5.40474336  5.33009437  1
  Mo  Mo31  1  3.46533931  6.99685785  7.01707404  1
  Mo  Mo32  1  7.18679672  5.37599784  8.87000323  1
  Mo  Mo33  1  4.64695389  4.64744043  7.78838731  1
  Mo  Mo34  1  7.93554053  7.90660636  7.80053092  1
  Mo  Mo35  1  6.41328907  6.27221262  6.30107729  1
  Mo  Mo36  1  5.31059310  7.02685447  8.81710949  1
  Mo  Mo37  1  1.29255541  1.45583393  10.94454597  1
  Mo  Mo38  1  3.04974563  3.04638951  12.34657266  1
  Mo  Mo39  1  1.42030665  1.48160063  14.18310846  1
  Mo  Mo40  1  3.05667633  2.99992007  15.71471339  1
  Mo  Mo41  1  4.60979820  1.39589033  11.04741422  1
  Mo  Mo42  1  6.14106553  3.01772342  12.67821353  1
  Mo  Mo43  1  4.63498901  1.41218443  14.21935065  1
  Mo  Mo44  1  7.83539293  1.44817838  11.09318860  1
  Mo  Mo45  1  7.76997826  1.43170556  14.29600537  1
  Mo  Mo46  1  6.19992682  2.96151328  15.81887245  1
  Mo  Mo47  1  1.46112628  4.63482021  10.95169512  1
  Mo  Mo48  1  3.02932093  6.28245972  12.63929041  1
  Mo  Mo49  1  1.41789381  4.65491725  14.04141639  1
  Mo  Mo50  1  1.53405748  7.86714705  10.93829047  1
  Mo  Mo51  1  1.38357792  7.87519977  14.19760534  1
  Mo  Mo52  1  3.06821426  6.24665442  15.74271420  1
  Mo  Mo53  1  7.79096894  7.81758958  14.13127716  1
  Mo  Mo54  1  7.80499914  4.62420571  14.32152384  1
  Mo  Mo55  1  4.60860668  7.91626763  14.28796258  1
  Mo  Mo56  1  4.62224963  7.92766655  11.03132865  1
  Mo  Mo57  1  7.91354698  4.58687129  11.14442414  1
  Mo  Mo58  1  7.71799802  7.72781817  10.95993649  1
  Mo  Mo59  1  4.81303249  4.81833478  10.86600468  1
  Mo  Mo60  1  6.18551931  6.28324414  12.65110636  1
  Mo  Mo61  1  4.57803415  4.61454444  14.10109189  1
  Mo  Mo62  1  6.31832460  6.26949197  15.82393643  1
  Mo  Mo63  1  3.07916635  9.33751757  3.06159137  1
  Mo  Mo64  1  1.38129416  11.07601080  1.34547894  1
  Mo  Mo65  1  1.40818289  11.00868969  4.52375030  1
  Mo  Mo66  1  6.21494003  9.53293745  2.92032626  1
  Mo  Mo67  1  4.53763156  11.05088950  1.53116804  1
  Mo  Mo68  1  4.72939743  10.89976453  4.74697241  1
  Mo  Mo69  1  7.89867279  11.03013712  1.47943603  1
  Mo  Mo70  1  7.93898602  11.19109217  4.58164844  1
  Mo  Mo71  1  2.94245882  15.80953885  2.98593952  1
  Mo  Mo72  1  2.96524672  12.62886457  3.04371851  1
  Mo  Mo73  1  1.44780107  14.20237143  1.38654680  1
  Mo  Mo74  1  1.45160402  14.17913671  4.60075255  1
  Mo  Mo75  1  7.75676227  14.22143582  4.64436233  1
  Mo  Mo76  1  7.82355713  14.15808645  1.45618145  1
  Mo  Mo77  1  6.21736279  15.57947540  3.01972916  1
  Mo  Mo78  1  4.72685551  14.13316374  4.47986250  1
  Mo  Mo79  1  4.58514358  14.22173370  1.35853605  1
  Mo  Mo80  1  6.22834467  12.63333279  2.89753836  1
  Mo  Mo81  1  2.88173081  9.56658808  6.17536157  1
  Mo  Mo82  1  3.09912438  9.37321365  9.21711406  1
  Mo  Mo83  1  1.47063861  11.13052303  7.81077803  1
  Mo  Mo84  1  7.77231166  11.04294601  7.89081866  1
  Mo  Mo85  1  7.06224274  8.97138208  5.44456012  1
  Mo  Mo86  1  5.33236820  8.94119680  7.17337222  1
  Mo  Mo87  1  6.28019583  9.51268154  9.61123051  1
  Mo  Mo88  1  4.61483239  11.17709176  7.98958608  1
  Mo  Mo89  1  2.98660479  12.57762904  6.28735490  1
  Mo  Mo90  1  3.02491229  12.70194472  9.59092496  1
  Mo  Mo91  1  1.36267660  14.24804652  7.91801520  1
  Mo  Mo92  1  2.97467962  15.73735235  6.15213678  1
  Mo  Mo93  1  3.00349464  15.76068636  9.40620893  1
  Mo  Mo94  1  7.83300989  14.11886545  7.89628974  1
  Mo  Mo95  1  4.61069184  14.19561946  7.71729304  1
  Mo  Mo96  1  6.24574092  12.64971625  9.45349258  1
  Mo  Mo97  1  6.15305028  12.51318744  6.25126165  1
  Mo  Mo98  1  6.23996203  15.61492325  6.22393603  1
  Mo  Mo99  1  6.24862044  15.71560703  9.43255155  1
  Mo  Mo100  1  3.04853425  9.45552810  12.54853599  1
  Mo  Mo101  1  1.41480578  10.99339846  10.95973791  1
  Mo  Mo102  1  1.51406967  11.02477526  14.22461322  1
  Mo  Mo103  1  3.05548481  9.36174523  15.83724178  1
  Mo  Mo104  1  6.29134651  9.49808537  12.67791565  1
  Mo  Mo105  1  4.63556491  11.12029578  11.00422147  1
  Mo  Mo106  1  4.68007826  11.06032240  14.33701366  1
  Mo  Mo107  1  7.94189533  11.09477730  11.04215166  1
  Mo  Mo108  1  7.84437901  10.94474456  14.26164976  1
  Mo  Mo109  1  6.26713871  9.52482516  15.87388115  1
  Mo  Mo110  1  3.02162567  12.58765770  12.60155881  1
  Mo  Mo111  1  1.37957638  14.31715492  11.08345782  1
  Mo  Mo112  1  1.37421453  14.23146448  14.20733612  1
  Mo  Mo113  1  3.00921396  15.87120022  12.65994349  1
  Mo  Mo114  1  3.04250713  12.52003871  15.83555379  1
  Mo  Mo115  1  3.02088096  15.77627547  15.77001997  1
  Mo  Mo116  1  7.81797682  14.26164976  14.28448730  1
  Mo  Mo117  1  7.81005319  14.25410344  11.09557165  1
  Mo  Mo118  1  6.27157714  12.63968758  12.59361532  1
  Mo  Mo119  1  4.55227738  14.23305318  11.04324389  1
  Mo  Mo120  1  4.60897406  14.11290783  14.12859623  1
  Mo  Mo121  1  6.19877501  15.67737897  12.64336145  1
  Mo  Mo122  1  6.24165002  15.82373784  15.75810472  1
  Mo  Mo123  1  6.26642380  12.62727588  15.85422100  1
  Mo  Mo124  1  9.49721159  3.06191904  3.08209551  1
  Mo  Mo125  1  11.03063359  1.51717756  1.47442170  1
  Mo  Mo126  1  11.00293065  1.48385460  4.65336827  1
  Mo  Mo127  1  15.76733904  3.05101659  2.96895037  1
  Mo  Mo128  1  12.56769967  3.01334457  3.05657704  1
  Mo  Mo129  1  14.24278396  1.45242815  1.39883936  1
  Mo  Mo130  1  14.19144913  1.48330849  4.58616631  1
  Mo  Mo131  1  9.63927105  6.27146791  2.95091864  1
  Mo  Mo132  1  11.05774076  4.58633511  1.46909956  1
  Mo  Mo133  1  11.03996720  4.70029446  4.68770402  1
  Mo  Mo134  1  11.00600876  7.96649037  1.36858457  1
  Mo  Mo135  1  11.30617354  7.93250215  4.62380854  1
  Mo  Mo136  1  7.95964904  4.74495675  4.63728269  1
  Mo  Mo137  1  15.94090438  6.33971246  2.96518714  1
  Mo  Mo138  1  14.32877228  7.82843245  4.56641679  1
  Mo  Mo139  1  14.25023098  7.92266214  1.42234217  1
  Mo  Mo140  1  14.18559080  4.62618166  4.58026826  1
  Mo  Mo141  1  14.14517828  4.61548773  1.42152796  1
  Mo  Mo142  1  12.64216993  6.23109511  2.94927037  1
  Mo  Mo143  1  9.61904493  2.89631705  6.23740025  1
  Mo  Mo144  1  9.27581648  3.18918374  9.49301146  1
  Mo  Mo145  1  11.03966931  1.43615392  7.94086267  1
  Mo  Mo146  1  7.90845322  1.26489219  7.85065437  1
  Mo  Mo147  1  15.77051643  3.10580684  9.32704209  1
  Mo  Mo148  1  15.75840261  3.01241121  6.25446884  1
  Mo  Mo149  1  12.65666680  3.11095026  6.26376272  1
  Mo  Mo150  1  12.75447107  3.04932860  9.52470601  1
  Mo  Mo151  1  14.16682430  1.48420213  7.76487457  1
  Mo  Mo152  1  11.07313128  7.87143654  7.81049008  1
  Mo  Mo153  1  9.02480207  7.17405734  5.46467702  1
  Mo  Mo154  1  9.00791222  5.36494645  7.21027968  1
  Mo  Mo155  1  9.63850649  6.30862361  9.60404165  1
  Mo  Mo156  1  11.29306677  4.62009496  7.92967228  1
  Mo  Mo157  1  15.78054509  6.33987133  9.48389631  1
  Mo  Mo158  1  15.83257498  6.23262423  6.26553015  1
  Mo  Mo159  1  12.69211464  6.21283500  6.30968605  1
  Mo  Mo160  1  12.70363271  6.30158369  9.57570324  1
  Mo  Mo161  1  14.22530827  4.73288264  7.86563779  1
  Mo  Mo162  1  14.20822976  7.86933151  7.84581877  1
  Mo  Mo163  1  9.37093982  3.07130229  12.71286702  1
  Mo  Mo164  1  10.95874497  1.47279329  11.11374240  1
  Mo  Mo165  1  11.00859039  1.44816845  14.27852968  1
  Mo  Mo166  1  9.47127608  3.06695323  15.87338468  1
  Mo  Mo167  1  15.82751100  3.11855615  12.55846536  1
  Mo  Mo168  1  12.67960364  3.08947303  12.62310554  1
  Mo  Mo169  1  14.19969050  1.54868344  11.02229292  1
  Mo  Mo170  1  14.22560615  1.46330081  14.21716619  1
  Mo  Mo171  1  15.74380644  3.06999162  15.74936688  1
  Mo  Mo172  1  12.68923513  2.99621642  15.70408897  1
  Mo  Mo173  1  9.39595190  6.31170171  12.67364602  1
  Mo  Mo174  1  10.98138393  4.67722854  11.10748689  1
  Mo  Mo175  1  11.01961199  4.56581110  14.35856038  1
  Mo  Mo176  1  11.07898961  7.85054515  11.07134400  1
  Mo  Mo177  1  11.07054965  7.78278714  14.21885418  1
  Mo  Mo178  1  9.48089764  6.17319696  15.81817740  1
  Mo  Mo179  1  15.93127289  6.26313717  12.60106235  1
  Mo  Mo180  1  12.75834353  6.18905416  12.74960568  1
  Mo  Mo181  1  14.24496842  4.69950011  11.04572623  1
  Mo  Mo182  1  14.24705359  4.62011481  14.20078273  1
  Mo  Mo183  1  14.25181968  7.89222863  10.99171047  1
  Mo  Mo184  1  14.16285255  7.89187118  14.22084006  1
  Mo  Mo185  1  15.80824803  6.17316718  15.77031785  1
  Mo  Mo186  1  12.69370334  6.17228346  15.80258829  1
  Mo  Mo187  1  9.50773672  9.35199459  3.14252564  1
  Mo  Mo188  1  11.03669050  10.99359705  1.43052397  1
  Mo  Mo189  1  11.11950143  11.06111675  4.67054607  1
  Mo  Mo190  1  12.75993222  9.41558226  3.02162567  1
  Mo  Mo191  1  14.18757668  11.10113210  1.43080199  1
  Mo  Mo192  1  14.27485582  10.98793731  4.64235660  1
  Mo  Mo193  1  15.82840465  9.49248521  3.01148778  1
  Mo  Mo194  1  9.37023484  15.77766558  3.01584677  1
  Mo  Mo195  1  9.45167551  12.58120361  3.09122060  1
  Mo  Mo196  1  11.08991191  14.15103660  1.44327328  1
  Mo  Mo197  1  10.91545293  14.19601664  4.70264772  1
  Mo  Mo198  1  15.70895436  15.86762565  3.09890593  1
  Mo  Mo199  1  12.59937435  15.77150937  3.09675126  1
  Mo  Mo200  1  15.78302744  12.64326216  3.07366548  1
  Mo  Mo201  1  12.60662279  12.62965892  3.04596255  1
  Mo  Mo202  1  14.25916741  14.23245742  1.44067178  1
  Mo  Mo203  1  14.10268058  14.20207355  4.64122465  1
  Mo  Mo204  1  9.49574204  9.42713011  9.38042237  1
  Mo  Mo205  1  9.54933084  9.58468931  6.30825622  1
  Mo  Mo206  1  11.02884630  11.02437809  7.92218553  1
  Mo  Mo207  1  12.71465431  9.47235838  6.29422602  1
  Mo  Mo208  1  12.64107770  9.41835255  9.45310534  1
  Mo  Mo209  1  14.17695225  11.12168589  7.90151259  1
  Mo  Mo210  1  15.70835859  9.43254162  6.24853108  1
  Mo  Mo211  1  15.87447691  9.55503029  9.26181607  1
  Mo  Mo212  1  9.41130270  12.61694933  6.31355850  1
  Mo  Mo213  1  9.43228345  12.58120361  9.48233739  1
  Mo  Mo214  1  11.02527173  14.33472990  7.94606566  1
  Mo  Mo215  1  9.37460376  15.68164860  6.27258000  1
  Mo  Mo216  1  9.47056116  15.81728375  9.51578943  1
  Mo  Mo217  1  12.65299294  12.68566056  6.37425673  1
  Mo  Mo218  1  12.56035194  12.59987082  9.50973252  1
  Mo  Mo219  1  14.14478110  14.23106730  7.81230715  1
  Mo  Mo220  1  15.76793480  12.58785629  6.24357632  1
  Mo  Mo221  1  15.74172127  12.59937435  9.42684216  1
  Mo  Mo222  1  12.62330413  15.85392312  6.34548142  1
  Mo  Mo223  1  12.64097840  15.93037925  9.57489896  1
  Mo  Mo224  1  15.71312469  15.77051643  6.19709695  1
  Mo  Mo225  1  15.73189119  15.73864316  9.43351469  1
  Mo  Mo226  1  9.45524015  9.31991280  12.61228253  1
  Mo  Mo227  1  10.92409148  10.93858835  11.06945742  1
  Mo  Mo228  1  11.01355508  10.95248947  14.22322310  1
  Mo  Mo229  1  9.50675371  9.48823544  15.76445952  1
  Mo  Mo230  1  12.60493480  9.30966569  12.71604442  1
  Mo  Mo231  1  14.18658374  10.99190906  11.04433612  1
  Mo  Mo232  1  14.20674035  11.01673248  14.24506771  1
  Mo  Mo233  1  15.72722439  9.40897923  12.58239513  1
  Mo  Mo234  1  12.66242584  9.37594422  15.81629082  1
  Mo  Mo235  1  15.71669926  9.42704075  15.71630209  1
  Mo  Mo236  1  9.40398476  12.66540465  12.65567387  1
  Mo  Mo237  1  10.98624932  14.13415668  11.07591151  1
  Mo  Mo238  1  11.01643459  14.17496638  14.15054013  1
  Mo  Mo239  1  9.48489917  15.74509725  12.64276569  1
  Mo  Mo240  1  9.43098271  12.58716123  15.82641877  1
  Mo  Mo241  1  9.52142931  15.79275822  15.74797677  1
  Mo  Mo242  1  12.50782558  12.59023933  12.59123227  1
  Mo  Mo243  1  14.15878151  14.19502370  11.03837850  1
  Mo  Mo244  1  14.12095062  14.21627255  14.28786329  1
  Mo  Mo245  1  15.68581893  12.67364602  12.56591238  1
  Mo  Mo246  1  12.60890655  15.88430698  12.69846944  1
  Mo  Mo247  1  15.67003124  15.84399375  12.62171543  1
  Mo  Mo248  1  15.87815078  15.76972208  15.70587625  1
  Mo  Mo249  1  12.66133361  15.81410636  15.88996672  1
  Mo  Mo250  1  12.60622562  12.60294892  15.81400706  1
  Mo  Mo251  1  15.77587829  12.58606900  15.82661736  1
