# generated using pymatgen
data_Mo
_symmetry_space_group_name_H-M   'P 1'
_cell_length_a   15.93663475
_cell_length_b   15.93663475
_cell_length_c   15.93663475
_cell_angle_alpha   90.00000000
_cell_angle_beta   90.00000000
_cell_angle_gamma   90.00000000
_symmetry_Int_Tables_number   1
_chemical_formula_structural   Mo
_chemical_formula_sum   Mo252
_cell_volume   4047.52796193
_cell_formula_units_Z   252
loop_
 _symmetry_equiv_pos_site_id
 _symmetry_equiv_pos_as_xyz
  1  'x, y, z'
loop_
 _atom_site_type_symbol
 _atom_site_label
 _atom_site_symmetry_multiplicity
 _atom_site_fract_x
 _atom_site_fract_y
 _atom_site_fract_z
 _atom_site_occupancy
  Mo  Mo0  1  1.46013334  1.43583618  1.41051629  1
  Mo  Mo1  1  3.14435265  3.02520024  3.08268135  1
  Mo  Mo2  1  1.43174528  1.37906006  4.49728854  1
  Mo  Mo3  1  4.65760811  1.48227583  1.57221604  1
  Mo  Mo4  1  6.23046956  2.88695366  2.84033528  1
  Mo  Mo5  1  4.68483443  1.27444424  4.51986792  1
  Mo  Mo6  1  7.83427092  1.53079072  1.32622589  1
  Mo  Mo7  1  7.85255088  1.54788909  4.62061128  1
  Mo  Mo8  1  1.41137022  7.82689340  1.44163493  1
  Mo  Mo9  1  1.24745622  4.56761825  4.65775705  1
  Mo  Mo10  1  1.59713875  7.75817224  4.71985531  1
  Mo  Mo11  1  2.83716781  6.25390286  2.90243354  1
  Mo  Mo12  1  1.48212689  4.59783331  1.33249132  1
  Mo  Mo13  1  7.93195603  8.06024346  1.26254886  1
  Mo  Mo14  1  4.56025066  4.55192985  1.24642357  1
  Mo  Mo15  1  7.81160217  4.71287496  1.46585266  1
  Mo  Mo16  1  4.71382818  7.79376903  4.64912843  1
  Mo  Mo17  1  7.12873971  7.16794085  3.60189790  1
  Mo  Mo18  1  5.52880088  5.44317994  3.42442039  1
  Mo  Mo19  1  4.61864527  7.76187590  1.51646264  1
  Mo  Mo20  1  2.89167011  2.87141420  6.21894156  1
  Mo  Mo21  1  1.48129282  1.48754833  7.86955989  1
  Mo  Mo22  1  3.04658810  3.03985598  9.44001843  1
  Mo  Mo23  1  5.41762175  3.53784355  5.32923052  1
  Mo  Mo24  1  7.05776459  3.55481284  7.23717833  1
  Mo  Mo25  1  4.62381847  1.56063840  7.77488337  1
  Mo  Mo26  1  6.22632901  2.87810659  9.69469678  1
  Mo  Mo27  1  2.90215552  6.22921846  9.52283928  1
  Mo  Mo28  1  1.44949899  4.80120662  7.96213138  1
  Mo  Mo29  1  1.19642920  8.00213680  7.95878518  1
  Mo  Mo30  1  3.54159685  5.37518363  5.36757774  1
  Mo  Mo31  1  3.50744976  7.13223485  7.05459712  1
  Mo  Mo32  1  7.02463029  5.42974551  9.07993985  1
  Mo  Mo33  1  4.55849316  4.66011031  7.93986974  1
  Mo  Mo34  1  7.81525618  7.94107119  7.99499759  1
  Mo  Mo35  1  6.18153763  6.18364266  6.42108362  1
  Mo  Mo36  1  5.42371838  7.11185979  8.93864495  1
  Mo  Mo37  1  1.43661067  1.44906210  11.02894560  1
  Mo  Mo38  1  2.94865474  3.01849792  12.63035398  1
  Mo  Mo39  1  1.44770177  1.44887344  14.18797385  1
  Mo  Mo40  1  2.96691485  2.97642719  15.81807810  1
  Mo  Mo41  1  4.65569174  1.37387693  11.09924552  1
  Mo  Mo42  1  6.28212213  3.03930987  12.71912252  1
  Mo  Mo43  1  4.57504542  1.36547668  14.30623262  1
  Mo  Mo44  1  7.93603700  1.39613857  11.08047901  1
  Mo  Mo45  1  7.88464260  1.47371672  14.26234481  1
  Mo  Mo46  1  6.28443567  3.03732400  15.74867183  1
  Mo  Mo47  1  1.43060340  4.59914399  11.08772745  1
  Mo  Mo48  1  3.01550918  6.12687647  12.61009807  1
  Mo  Mo49  1  1.35038404  4.53503999  14.17496638  1
  Mo  Mo50  1  1.42866718  8.05497097  11.14541708  1
  Mo  Mo51  1  1.40509486  7.79273637  14.16602995  1
  Mo  Mo52  1  2.96301261  6.20089990  15.72364982  1
  Mo  Mo53  1  7.93470647  7.84117183  14.23682634  1
  Mo  Mo54  1  7.89088817  4.65104479  14.16354761  1
  Mo  Mo55  1  4.54221893  7.82495717  14.23891151  1
  Mo  Mo56  1  4.52238005  7.93647389  11.18354585  1
  Mo  Mo57  1  7.94872673  4.52848661  11.27360521  1
  Mo  Mo58  1  7.78621278  7.80719353  11.04572623  1
  Mo  Mo59  1  4.65719107  4.65700241  11.11364310  1
  Mo  Mo60  1  6.05288282  6.19936085  12.68327751  1
  Mo  Mo61  1  4.63873238  4.53476197  14.31268671  1
  Mo  Mo62  1  6.30078934  6.24427138  15.78441755  1
  Mo  Mo63  1  2.99766610  9.37613288  3.10563804  1
  Mo  Mo64  1  1.44881386  10.99250482  1.36862429  1
  Mo  Mo65  1  1.51573780  11.05466266  4.58250237  1
  Mo  Mo66  1  6.24347703  9.57897993  2.99404188  1
  Mo  Mo67  1  4.70074128  10.99965396  1.40158979  1
  Mo  Mo68  1  4.69200343  11.01037768  4.54072952  1
  Mo  Mo69  1  7.92127203  11.05357043  1.35328342  1
  Mo  Mo70  1  7.97815738  11.27271157  4.56725086  1
  Mo  Mo71  1  3.04296388  15.79295680  3.02596480  1
  Mo  Mo72  1  3.11163538  12.49203789  2.97821447  1
  Mo  Mo73  1  1.45709496  14.19839969  1.48439079  1
  Mo  Mo74  1  1.51382143  14.20217285  4.66774599  1
  Mo  Mo75  1  7.86095113  14.28180637  4.63763022  1
  Mo  Mo76  1  7.78610355  14.16454054  1.53535823  1
  Mo  Mo77  1  6.27660140  15.78749565  3.00496419  1
  Mo  Mo78  1  4.64546449  14.09364486  4.67884702  1
  Mo  Mo79  1  4.65557259  14.22689697  1.40314870  1
  Mo  Mo80  1  6.27569782  12.70115037  3.11659014  1
  Mo  Mo81  1  2.90552157  9.58734046  6.18218304  1
  Mo  Mo82  1  3.18550988  9.39148368  9.34082405  1
  Mo  Mo83  1  1.43021616  11.04344247  7.85695952  1
  Mo  Mo84  1  7.90486872  11.11612544  7.71843491  1
  Mo  Mo85  1  7.00454318  9.09631338  5.39145787  1
  Mo  Mo86  1  5.37576946  8.90734758  7.05041686  1
  Mo  Mo87  1  6.29889283  9.59796488  9.47278534  1
  Mo  Mo88  1  4.55063903  11.27588897  7.83780577  1
  Mo  Mo89  1  3.03655943  12.69112171  6.25465749  1
  Mo  Mo90  1  2.96860284  12.76281174  9.44255042  1
  Mo  Mo91  1  1.56823437  14.34793596  7.83184815  1
  Mo  Mo92  1  3.01630353  15.81331201  6.18945134  1
  Mo  Mo93  1  3.09003901  15.80248900  9.37754285  1
  Mo  Mo94  1  7.81856266  14.20396013  7.75625588  1
  Mo  Mo95  1  4.63392656  14.27177771  7.90117499  1
  Mo  Mo96  1  6.26743659  12.71495219  9.41911711  1
  Mo  Mo97  1  6.29019470  12.58815417  6.27515171  1
  Mo  Mo98  1  6.24233515  15.82224844  6.24982189  1
  Mo  Mo99  1  6.29071103  15.71590491  9.36803052  1
  Mo  Mo100  1  2.95346056  9.36946035  12.66421312  1
  Mo  Mo101  1  1.43223182  11.12526046  10.98267474  1
  Mo  Mo102  1  1.55391622  11.07293270  14.27435935  1
  Mo  Mo103  1  3.11045379  9.34926401  15.92978349  1
  Mo  Mo104  1  6.20159496  9.41998097  12.72448438  1
  Mo  Mo105  1  4.61279687  11.00839181  10.97880229  1
  Mo  Mo106  1  4.67312771  11.03351311  14.18112259  1
  Mo  Mo107  1  7.80356931  11.00551229  10.93183638  1
  Mo  Mo108  1  7.92580975  11.15584291  14.02165695  1
  Mo  Mo109  1  6.31924803  9.53233176  15.70726636  1
  Mo  Mo110  1  3.06157151  12.63144621  12.58229584  1
  Mo  Mo111  1  1.48708164  14.23245742  11.04393894  1
  Mo  Mo112  1  1.46996342  14.24337972  14.21071210  1
  Mo  Mo113  1  3.05766927  15.79464480  12.57564316  1
  Mo  Mo114  1  2.95838553  12.56789826  15.84806479  1
  Mo  Mo115  1  3.03398773  15.71173458  15.81460283  1
  Mo  Mo116  1  7.79953799  14.21448526  14.18400210  1
  Mo  Mo117  1  7.86195399  14.17834236  10.97919947  1
  Mo  Mo118  1  6.14901895  12.64822684  12.61387123  1
  Mo  Mo119  1  4.65234554  14.23533693  10.98654720  1
  Mo  Mo120  1  4.61564660  14.17149110  14.13683761  1
  Mo  Mo121  1  6.22673611  15.83773825  12.63710595  1
  Mo  Mo122  1  6.22094729  15.73119614  15.84260364  1
  Mo  Mo123  1  6.32410349  12.64286498  15.79434692  1
  Mo  Mo124  1  9.38824671  3.06781708  3.07540312  1
  Mo  Mo125  1  11.01146991  1.44014553  1.45290476  1
  Mo  Mo126  1  11.03718697  1.42043573  4.66894744  1
  Mo  Mo127  1  15.81073037  3.03461328  3.09467602  1
  Mo  Mo128  1  12.58448030  2.98900769  3.09444765  1
  Mo  Mo129  1  14.20068344  1.37119600  1.45713467  1
  Mo  Mo130  1  14.16315043  1.54414572  4.62620152  1
  Mo  Mo131  1  9.54777193  6.18639309  2.89965332  1
  Mo  Mo132  1  11.02149857  4.46015270  1.50407079  1
  Mo  Mo133  1  10.99419281  4.64299208  4.72506823  1
  Mo  Mo134  1  10.95675910  7.90031114  1.44291582  1
  Mo  Mo135  1  11.24510793  7.91750880  4.57746818  1
  Mo  Mo136  1  7.81670586  4.58220449  4.57913631  1
  Mo  Mo137  1  15.68075495  6.31356843  3.04990450  1
  Mo  Mo138  1  14.23911009  7.99906863  4.62732353  1
  Mo  Mo139  1  14.14686627  7.86403916  1.52611399  1
  Mo  Mo140  1  14.11260995  4.75045762  4.67108226  1
  Mo  Mo141  1  14.26095470  4.49816232  1.45719425  1
  Mo  Mo142  1  12.63253844  6.28096039  3.04263621  1
  Mo  Mo143  1  9.50115355  2.88235636  6.30900092  1
  Mo  Mo144  1  9.40429257  3.12136616  9.36721631  1
  Mo  Mo145  1  11.01742753  1.36577456  7.98409514  1
  Mo  Mo146  1  7.88717458  1.21877028  7.86273841  1
  Mo  Mo147  1  15.72712510  3.16252339  9.41914690  1
  Mo  Mo148  1  15.76485669  3.00568903  6.32310062  1
  Mo  Mo149  1  12.65299294  3.06526524  6.14508693  1
  Mo  Mo150  1  12.52142882  3.01005795  9.42630597  1
  Mo  Mo151  1  14.13495103  1.53151556  7.76684058  1
  Mo  Mo152  1  10.87404747  7.88607243  7.81587180  1
  Mo  Mo153  1  8.93097948  7.13240365  5.48313571  1
  Mo  Mo154  1  8.83851721  5.41660895  7.10386665  1
  Mo  Mo155  1  9.60528282  6.22081821  9.47660815  1
  Mo  Mo156  1  11.24222841  4.59052530  7.86685910  1
  Mo  Mo157  1  15.80368052  6.20975690  9.47352012  1
  Mo  Mo158  1  15.77051643  6.29221036  6.22925817  1
  Mo  Mo159  1  12.64504944  6.30022336  6.25834129  1
  Mo  Mo160  1  12.65408517  6.31640823  9.42227465  1
  Mo  Mo161  1  14.25966388  4.62340143  7.78769225  1
  Mo  Mo162  1  14.12422731  7.90071824  7.93535188  1
  Mo  Mo163  1  9.51879803  3.05881115  12.68069587  1
  Mo  Mo164  1  11.02358374  1.38223745  11.12377106  1
  Mo  Mo165  1  11.04810928  1.35986659  14.24328043  1
  Mo  Mo166  1  9.51151981  3.03767152  15.73347989  1
  Mo  Mo167  1  15.73814670  3.07589959  12.61873662  1
  Mo  Mo168  1  12.65666680  2.93896368  12.68595844  1
  Mo  Mo169  1  14.12561742  1.47803599  10.93392155  1
  Mo  Mo170  1  14.27644451  1.41049643  14.16573207  1
  Mo  Mo171  1  15.75671461  3.07144130  15.80576569  1
  Mo  Mo172  1  12.60771502  3.03409695  15.79305610  1
  Mo  Mo173  1  9.48611055  6.17545093  12.58557253  1
  Mo  Mo174  1  11.04572623  4.65248455  11.06717366  1
  Mo  Mo175  1  11.14551637  4.65229589  14.21359162  1
  Mo  Mo176  1  11.06667719  7.90110549  11.11076358  1
  Mo  Mo177  1  11.15395633  7.81394550  14.31556622  1
  Mo  Mo178  1  9.47711455  6.23283275  15.74867183  1
  Mo  Mo179  1  15.74906900  6.22214875  12.48528592  1
  Mo  Mo180  1  12.64077981  6.20503052  12.60334610  1
  Mo  Mo181  1  14.21547820  4.64761916  10.94454597  1
  Mo  Mo182  1  14.16980311  4.63551526  14.11995768  1
  Mo  Mo183  1  14.19035690  7.83959306  11.10708972  1
  Mo  Mo184  1  14.32221890  7.87197272  14.15550482  1
  Mo  Mo185  1  15.80536851  6.32575177  15.74360785  1
  Mo  Mo186  1  12.74096713  6.33124271  15.84697256  1
  Mo  Mo187  1  9.36268852  9.40651674  3.00388189  1
  Mo  Mo188  1  11.03609474  10.88506906  1.48961363  1
  Mo  Mo189  1  11.05059162  11.06915954  4.60200365  1
  Mo  Mo190  1  12.65428375  9.49363701  3.15233586  1
  Mo  Mo191  1  14.14398675  11.00998051  1.52214224  1
  Mo  Mo192  1  14.24566348  11.09855046  4.69675960  1
  Mo  Mo193  1  15.77468677  9.43263098  3.08263170  1
  Mo  Mo194  1  9.43797298  15.73506859  2.98337774  1
  Mo  Mo195  1  9.50819347  12.59927506  2.97144264  1
  Mo  Mo196  1  10.96668846  14.06375746  1.51142845  1
  Mo  Mo197  1  11.04602411  14.18201623  4.68138894  1
  Mo  Mo198  1  15.76386376  15.83466015  2.98276212  1
  Mo  Mo199  1  12.59004075  15.74033116  3.11320422  1
  Mo  Mo200  1  15.76972208  12.57226718  3.06159137  1
  Mo  Mo201  1  12.67602907  12.55856465  3.09015816  1
  Mo  Mo202  1  14.13524891  14.09860954  1.53061199  1
  Mo  Mo203  1  14.24397548  14.26750808  4.62538731  1
  Mo  Mo204  1  9.40774799  9.33551184  9.51446883  1
  Mo  Mo205  1  9.52899549  9.65202035  6.18038583  1
  Mo  Mo206  1  11.03986790  10.98505779  7.81039079  1
  Mo  Mo207  1  12.64991483  9.43002949  6.31726216  1
  Mo  Mo208  1  12.65944703  9.42672301  9.52028744  1
  Mo  Mo209  1  14.23672704  11.10331656  7.87030459  1
  Mo  Mo210  1  15.79881513  9.54072208  6.23710237  1
  Mo  Mo211  1  15.65305202  9.51725898  9.48469065  1
  Mo  Mo212  1  9.49606971  12.67414249  6.21478116  1
  Mo  Mo213  1  9.40929697  12.54664941  9.41401342  1
  Mo  Mo214  1  11.01901623  14.09622650  7.76741648  1
  Mo  Mo215  1  9.49402426  15.80199253  6.22755032  1
  Mo  Mo216  1  9.47452298  15.64917956  9.41580070  1
  Mo  Mo217  1  12.67126297  12.68387327  6.18993788  1
  Mo  Mo218  1  12.66500747  12.57296224  9.45191381  1
  Mo  Mo219  1  14.22173370  14.22987578  7.80281468  1
  Mo  Mo220  1  15.87864725  12.58676406  6.16204628  1
  Mo  Mo221  1  15.81490071  12.67523472  9.32851163  1
  Mo  Mo222  1  12.59272168  15.72196183  6.25286028  1
  Mo  Mo223  1  12.51835071  15.72861450  9.39060990  1
  Mo  Mo224  1  15.81102825  15.83575238  6.15205734  1
  Mo  Mo225  1  15.74102621  15.80874450  9.46191269  1
  Mo  Mo226  1  9.37227036  9.31615950  12.62509141  1
  Mo  Mo227  1  11.06618073  10.99121400  11.01663318  1
  Mo  Mo228  1  11.05923017  11.05734359  14.04459378  1
  Mo  Mo229  1  9.46492128  9.49042983  15.68432952  1
  Mo  Mo230  1  12.61466558  9.47233852  12.64514874  1
  Mo  Mo231  1  14.18916537  11.08911756  11.07193976  1
  Mo  Mo232  1  14.33413414  11.09894764  14.38904354  1
  Mo  Mo233  1  15.84230576  9.58695321  12.49352730  1
  Mo  Mo234  1  12.61267970  9.39378730  15.86504401  1
  Mo  Mo235  1  15.82264561  9.52675146  15.82463149  1
  Mo  Mo236  1  9.30963591  12.62032532  12.56760038  1
  Mo  Mo237  1  10.89479984  14.10059542  11.01246285  1
  Mo  Mo238  1  11.06210968  14.15659705  14.24526630  1
  Mo  Mo239  1  9.40930690  15.71233034  12.66024137  1
  Mo  Mo240  1  9.51166875  12.61555922  15.76912632  1
  Mo  Mo241  1  9.38685660  15.74499796  15.85630617  1
  Mo  Mo242  1  12.66838346  12.64117699  12.64385792  1
  Mo  Mo243  1  14.17437062  14.27803321  11.01722894  1
  Mo  Mo244  1  14.23166307  14.23652846  14.26006106  1
  Mo  Mo245  1  15.88271829  12.60721855  12.62469424  1
  Mo  Mo246  1  12.59162945  15.78034651  12.56591238  1
  Mo  Mo247  1  15.83892978  15.78550978  12.57941632  1
  Mo  Mo248  1  15.83456085  15.72355053  15.72672792  1
  Mo  Mo249  1  12.57981350  15.72533781  15.78084298  1
  Mo  Mo250  1  12.69717862  12.59381391  15.84995137  1
  Mo  Mo251  1  15.85253301  12.69578851  15.79484338  1
