# generated using pymatgen
data_Mo
_symmetry_space_group_name_H-M   'P 1'
_cell_length_a   28.91841060
_cell_length_b   3.16250080
_cell_length_c   3.16250080
_cell_angle_alpha   90.00000000
_cell_angle_beta   90.00000000
_cell_angle_gamma   90.00000000
_symmetry_Int_Tables_number   1
_chemical_formula_structural   Mo
_chemical_formula_sum   Mo12
_cell_volume   289.22491896
_cell_formula_units_Z   12
loop_
 _symmetry_equiv_pos_site_id
 _symmetry_equiv_pos_as_xyz
  1  'x, y, z'
loop_
 _atom_site_type_symbol
 _atom_site_label
 _atom_site_symmetry_multiplicity
 _atom_site_fract_x
 _atom_site_fract_y
 _atom_site_fract_z
 _atom_site_occupancy
  Mo  Mo0  1  0.15105913  0.00798040  -0.01742910  1
  Mo  Mo1  1  1.56059224  1.57768795  1.56693008  1
  Mo  Mo2  1  3.16025487  -0.01372577  -0.00390533  1
  Mo  Mo3  1  4.75550198  1.58205027  1.58848981  1
  Mo  Mo4  1  6.31463159  -0.00336326  0.00980100  1
  Mo  Mo5  1  7.90255359  1.56958199  1.58153584  1
  Mo  Mo6  1  9.49066692  -0.01432372  0.00058303  1
  Mo  Mo7  1  11.07409948  1.58120855  1.57922773  1
  Mo  Mo8  1  12.65587988  0.00076982  0.01219492  1
  Mo  Mo9  1  14.21806316  1.60002537  1.57913000  1
  Mo  Mo10  1  15.83936636  0.00442248  -0.00756267  1
  Mo  Mo11  1  17.23984927  1.59518733  1.59850610  1
