# generated using pymatgen
data_Mo
_symmetry_space_group_name_H-M   'P 1'
_cell_length_a   28.91841060
_cell_length_b   3.16250080
_cell_length_c   3.16250080
_cell_angle_alpha   90.00000000
_cell_angle_beta   90.00000000
_cell_angle_gamma   90.00000000
_symmetry_Int_Tables_number   1
_chemical_formula_structural   Mo
_chemical_formula_sum   Mo12
_cell_volume   289.22491896
_cell_formula_units_Z   12
loop_
 _symmetry_equiv_pos_site_id
 _symmetry_equiv_pos_as_xyz
  1  'x, y, z'
loop_
 _atom_site_type_symbol
 _atom_site_label
 _atom_site_symmetry_multiplicity
 _atom_site_fract_x
 _atom_site_fract_y
 _atom_site_fract_z
 _atom_site_occupancy
  Mo  Mo0  1  0.13872543  0.01658969  -0.03671854  1
  Mo  Mo1  1  1.55941422  1.57366547  1.55127985  1
  Mo  Mo2  1  3.13796351  -0.02823506  -0.00823495  1
  Mo  Mo3  1  4.76628204  1.58239636  1.59626758  1
  Mo  Mo4  1  6.30258144  -0.00721122  0.02034381  1
  Mo  Mo5  1  7.89610463  1.55675710  1.58211261  1
  Mo  Mo6  1  9.49691034  -0.02972855  0.00121986  1
  Mo  Mo7  1  11.08071710  1.58083561  1.57741614  1
  Mo  Mo8  1  12.66324277  0.00204202  0.02490289  1
  Mo  Mo9  1  14.22496993  1.61999796  1.57708874  1
  Mo  Mo10  1  15.84612248  0.00988241  -0.01534812  1
  Mo  Mo11  1  17.24948456  1.61050960  1.61717153  1
