# generated using pymatgen
data_Mo
_symmetry_space_group_name_H-M   'P 1'
_cell_length_a   28.91841060
_cell_length_b   3.16250080
_cell_length_c   3.16250080
_cell_angle_alpha   90.00000000
_cell_angle_beta   90.00000000
_cell_angle_gamma   90.00000000
_symmetry_Int_Tables_number   1
_chemical_formula_structural   Mo
_chemical_formula_sum   Mo12
_cell_volume   289.22491896
_cell_formula_units_Z   12
loop_
 _symmetry_equiv_pos_site_id
 _symmetry_equiv_pos_as_xyz
  1  'x, y, z'
loop_
 _atom_site_type_symbol
 _atom_site_label
 _atom_site_symmetry_multiplicity
 _atom_site_fract_x
 _atom_site_fract_y
 _atom_site_fract_z
 _atom_site_occupancy
  Mo  Mo0  1  0.12711881  0.02464869  -0.05584856  1
  Mo  Mo1  1  1.55669486  1.56951708  1.53619665  1
  Mo  Mo2  1  3.11866730  -0.04123498  -0.01258488  1
  Mo  Mo3  1  4.77305657  1.58165271  1.60351139  1
  Mo  Mo4  1  6.29260612  -0.01129916  0.03015121  1
  Mo  Mo5  1  7.89139631  1.54423071  1.58323381  1
  Mo  Mo6  1  9.50167109  -0.04408646  0.00183693  1
  Mo  Mo7  1  11.08685952  1.57980563  1.57648732  1
  Mo  Mo8  1  12.67049166  0.00415676  0.03589002  1
  Mo  Mo9  1  14.23191275  1.63814665  1.57569053  1
  Mo  Mo10  1  15.85312557  0.01647706  -0.02184011  1
  Mo  Mo11  1  17.25891789  1.62548673  1.63477711  1
