# generated using pymatgen
data_Mo
_symmetry_space_group_name_H-M   'P 1'
_cell_length_a   28.91841060
_cell_length_b   3.16250080
_cell_length_c   3.16250080
_cell_angle_alpha   90.00000000
_cell_angle_beta   90.00000000
_cell_angle_gamma   90.00000000
_symmetry_Int_Tables_number   1
_chemical_formula_structural   Mo
_chemical_formula_sum   Mo12
_cell_volume   289.22491896
_cell_formula_units_Z   12
loop_
 _symmetry_equiv_pos_site_id
 _symmetry_equiv_pos_as_xyz
  1  'x, y, z'
loop_
 _atom_site_type_symbol
 _atom_site_label
 _atom_site_symmetry_multiplicity
 _atom_site_fract_x
 _atom_site_fract_y
 _atom_site_fract_z
 _atom_site_occupancy
  Mo  Mo0  1  0.11651655  0.03187299  -0.07472785  1
  Mo  Mo1  1  1.55174663  1.56521773  1.52196787  1
  Mo  Mo2  1  3.10360308  -0.05209443  -0.01701669  1
  Mo  Mo3  1  4.77429868  1.57938916  1.60999127  1
  Mo  Mo4  1  6.28555401  -0.01576041  0.03887672  1
  Mo  Mo5  1  7.88898540  1.53217973  1.58513808  1
  Mo  Mo6  1  9.50449144  -0.05695166  0.00245208  1
  Mo  Mo7  1  11.09231797  1.57788146  1.57678665  1
  Mo  Mo8  1  12.67753226  0.00743168  0.04444007  1
  Mo  Mo9  1  14.23883661  1.65369209  1.57520286  1
  Mo  Mo10  1  15.86049196  0.02469663  -0.02642995  1
  Mo  Mo11  1  17.26814386  1.63994643  1.65082030  1
