# generated using pymatgen
data_Mo
_symmetry_space_group_name_H-M   'P 1'
_cell_length_a   28.91841060
_cell_length_b   3.16250080
_cell_length_c   3.16250080
_cell_angle_alpha   90.00000000
_cell_angle_beta   90.00000000
_cell_angle_gamma   90.00000000
_symmetry_Int_Tables_number   1
_chemical_formula_structural   Mo
_chemical_formula_sum   Mo12
_cell_volume   289.22491896
_cell_formula_units_Z   12
loop_
 _symmetry_equiv_pos_site_id
 _symmetry_equiv_pos_as_xyz
  1  'x, y, z'
loop_
 _atom_site_type_symbol
 _atom_site_label
 _atom_site_symmetry_multiplicity
 _atom_site_fract_x
 _atom_site_fract_y
 _atom_site_fract_z
 _atom_site_occupancy
  Mo  Mo0  1  0.10705501  0.03798795  -0.09324419  1
  Mo  Mo1  1  1.54411121  1.56080184  1.50884384  1
  Mo  Mo2  1  3.09362653  -0.06034976  -0.02159392  1
  Mo  Mo3  1  4.76922817  1.57531198  1.61549253  1
  Mo  Mo4  1  6.28188987  -0.02073995  0.04623823  1
  Mo  Mo5  1  7.88910425  1.52079811  1.58798808  1
  Mo  Mo6  1  9.50521774  -0.06798477  0.00312455  1
  Mo  Mo7  1  11.09692275  1.57494982  1.57852644  1
  Mo  Mo8  1  12.68424572  0.01203306  0.05004431  1
  Mo  Mo9  1  14.24567803  1.66606949  1.57581861  1
  Mo  Mo10  1  15.86823512  0.03488576  -0.02859342  1
  Mo  Mo11  1  17.27720408  1.65373787  1.66485634  1
