# generated using pymatgen
data_Mo
_symmetry_space_group_name_H-M   'P 1'
_cell_length_a   28.91841060
_cell_length_b   3.16250080
_cell_length_c   3.16250080
_cell_angle_alpha   90.00000000
_cell_angle_beta   90.00000000
_cell_angle_gamma   90.00000000
_symmetry_Int_Tables_number   1
_chemical_formula_structural   Mo
_chemical_formula_sum   Mo12
_cell_volume   289.22491896
_cell_formula_units_Z   12
loop_
 _symmetry_equiv_pos_site_id
 _symmetry_equiv_pos_as_xyz
  1  'x, y, z'
loop_
 _atom_site_type_symbol
 _atom_site_label
 _atom_site_symmetry_multiplicity
 _atom_site_fract_x
 _atom_site_fract_y
 _atom_site_fract_z
 _atom_site_occupancy
  Mo  Mo0  1  0.09875240  0.04274792  -0.11126794  1
  Mo  Mo1  1  1.53366494  1.55637185  1.49700033  1
  Mo  Mo2  1  3.08906453  -0.06574508  -0.02634880  1
  Mo  Mo3  1  4.75789736  1.56927925  1.61980511  1
  Mo  Mo4  1  6.28161129  -0.02639247  0.05204496  1
  Mo  Mo5  1  7.89162527  1.51027629  1.59185232  1
  Mo  Mo6  1  9.50399314  -0.07696899  0.00396220  1
  Mo  Mo7  1  11.10058051  1.57103652  1.58176439  1
  Mo  Mo8  1  12.69050052  0.01794441  0.05244653  1
  Mo  Mo9  1  14.25237637  1.67499366  1.57764187  1
  Mo  Mo10  1  15.87629223  0.04719989  -0.02793143  1
  Mo  Mo11  1  17.28615989  1.66675815  1.67653185  1
