# generated using pymatgen
data_Mo
_symmetry_space_group_name_H-M   'P 1'
_cell_length_a   28.91841060
_cell_length_b   3.16250080
_cell_length_c   3.16250080
_cell_angle_alpha   90.00000000
_cell_angle_beta   90.00000000
_cell_angle_gamma   90.00000000
_symmetry_Int_Tables_number   1
_chemical_formula_structural   Mo
_chemical_formula_sum   Mo12
_cell_volume   289.22491896
_cell_formula_units_Z   12
loop_
 _symmetry_equiv_pos_site_id
 _symmetry_equiv_pos_as_xyz
  1  'x, y, z'
loop_
 _atom_site_type_symbol
 _atom_site_label
 _atom_site_symmetry_multiplicity
 _atom_site_fract_x
 _atom_site_fract_y
 _atom_site_fract_z
 _atom_site_occupancy
  Mo  Mo0  1  0.09151820  0.04594775  -0.12864980  1
  Mo  Mo1  1  1.52069318  1.55209810  1.48651446  1
  Mo  Mo2  1  3.08965796  -0.06824700  -0.03125634  1
  Mo  Mo3  1  4.74115205  1.56130405  1.62271664  1
  Mo  Mo4  1  6.28428440  -0.03286908  0.05620645  1
  Mo  Mo5  1  7.89607645  1.50078785  1.59669700  1
  Mo  Mo6  1  9.50122522  -0.08381000  0.00511994  1
  Mo  Mo7  1  11.10326658  1.56630397  1.58640065  1
  Mo  Mo8  1  12.69615629  0.02495801  0.05165964  1
  Mo  Mo9  1  14.25890222  1.68048288  1.58068321  1
  Mo  Mo10  1  15.88455635  0.06157467  -0.02420134  1
  Mo  Mo11  1  17.29502956  1.67897021  1.68561091  1
