# generated using pymatgen
data_Mo
_symmetry_space_group_name_H-M   'P 1'
_cell_length_a   28.91841060
_cell_length_b   3.16250080
_cell_length_c   3.16250080
_cell_angle_alpha   90.00000000
_cell_angle_beta   90.00000000
_cell_angle_gamma   90.00000000
_symmetry_Int_Tables_number   1
_chemical_formula_structural   Mo
_chemical_formula_sum   Mo12
_cell_volume   289.22491896
_cell_formula_units_Z   12
loop_
 _symmetry_equiv_pos_site_id
 _symmetry_equiv_pos_as_xyz
  1  'x, y, z'
loop_
 _atom_site_type_symbol
 _atom_site_label
 _atom_site_symmetry_multiplicity
 _atom_site_fract_x
 _atom_site_fract_y
 _atom_site_fract_z
 _atom_site_occupancy
  Mo  Mo0  1  0.08512645  0.04742877  -0.14521816  1
  Mo  Mo1  1  1.50581095  1.54820057  1.47736742  1
  Mo  Mo2  1  3.09467292  -0.06803736  -0.03622979  1
  Mo  Mo3  1  4.72050474  1.55155152  1.62401793  1
  Mo  Mo4  1  6.28912336  -0.04029838  0.05872195  1
  Mo  Mo5  1  7.90171559  1.49248553  1.60238699  1
  Mo  Mo6  1  9.49755176  -0.08852288  0.00679182  1
  Mo  Mo7  1  11.10502876  1.56103632  1.59219020  1
  Mo  Mo8  1  12.70106545  0.03269181  0.04795370  1
  Mo  Mo9  1  14.26523639  1.68284076  1.58486452  1
  Mo  Mo10  1  15.89289659  0.07771894  -0.01733064  1
  Mo  Mo11  1  17.30378549  1.69040583  1.69198549  1
