# generated using pymatgen
data_Mo
_symmetry_space_group_name_H-M   'P 1'
_cell_length_a   28.91841060
_cell_length_b   3.16250080
_cell_length_c   3.16250080
_cell_angle_alpha   90.00000000
_cell_angle_beta   90.00000000
_cell_angle_gamma   90.00000000
_symmetry_Int_Tables_number   1
_chemical_formula_structural   Mo
_chemical_formula_sum   Mo12
_cell_volume   289.22491896
_cell_formula_units_Z   12
loop_
 _symmetry_equiv_pos_site_id
 _symmetry_equiv_pos_as_xyz
  1  'x, y, z'
loop_
 _atom_site_type_symbol
 _atom_site_label
 _atom_site_symmetry_multiplicity
 _atom_site_fract_x
 _atom_site_fract_y
 _atom_site_fract_z
 _atom_site_occupancy
  Mo  Mo0  1  0.07929623  0.04709125  -0.16078798  1
  Mo  Mo1  1  1.48986044  1.54491638  1.46945171  1
  Mo  Mo2  1  3.10295139  -0.06549414  -0.04113898  1
  Mo  Mo3  1  4.69790974  1.54032546  1.62352502  1
  Mo  Mo4  1  6.29515372  -0.04876608  0.05966638  1
  Mo  Mo5  1  7.90762164  1.48548898  1.60870008  1
  Mo  Mo6  1  9.49374451  -0.09122672  0.00918972  1
  Mo  Mo7  1  11.10596055  1.55560622  1.59877583  1
  Mo  Mo8  1  12.70512700  0.04063772  0.04182893  1
  Mo  Mo9  1  14.27137986  1.68261474  1.59003597  1
  Mo  Mo10  1  15.90117616  0.09514463  -0.00742910  1
  Mo  Mo11  1  17.31233724  1.70116298  1.69568383  1
