# generated using pymatgen
data_Mo
_symmetry_space_group_name_H-M   'P 1'
_cell_length_a   28.91841060
_cell_length_b   3.16250080
_cell_length_c   3.16250080
_cell_angle_alpha   90.00000000
_cell_angle_beta   90.00000000
_cell_angle_gamma   90.00000000
_symmetry_Int_Tables_number   1
_chemical_formula_structural   Mo
_chemical_formula_sum   Mo12
_cell_volume   289.22491896
_cell_formula_units_Z   12
loop_
 _symmetry_equiv_pos_site_id
 _symmetry_equiv_pos_as_xyz
  1  'x, y, z'
loop_
 _atom_site_type_symbol
 _atom_site_label
 _atom_site_symmetry_multiplicity
 _atom_site_fract_x
 _atom_site_fract_y
 _atom_site_fract_z
 _atom_site_occupancy
  Mo  Mo0  1  0.07374218  0.04489703  -0.17516838  1
  Mo  Mo1  1  1.47379268  1.54246574  1.46260035  1
  Mo  Mo2  1  3.11303642  -0.06115879  -0.04583552  1
  Mo  Mo3  1  4.67552223  1.52805634  1.62109771  1
  Mo  Mo4  1  6.30138807  -0.05829458  0.05916771  1
  Mo  Mo5  1  7.91282403  1.47988369  1.61535448  1
  Mo  Mo6  1  9.49061872  -0.09212903  0.01250833  1
  Mo  Mo7  1  11.10618247  1.55043851  1.60572678  1
  Mo  Mo8  1  12.70828929  0.04822068  0.03397340  1
  Mo  Mo9  1  14.27734848  1.68052466  1.59599507  1
  Mo  Mo10  1  15.90923912  0.11321542  0.00522189  1
  Mo  Mo11  1  17.32053479  1.71138175  1.69685958  1
