# generated using pymatgen
data_Mo
_symmetry_space_group_name_H-M   'P 1'
_cell_length_a   28.91841060
_cell_length_b   3.16250080
_cell_length_c   3.16250080
_cell_angle_alpha   90.00000000
_cell_angle_beta   90.00000000
_cell_angle_gamma   90.00000000
_symmetry_Int_Tables_number   1
_chemical_formula_structural   Mo
_chemical_formula_sum   Mo12
_cell_volume   289.22491896
_cell_formula_units_Z   12
loop_
 _symmetry_equiv_pos_site_id
 _symmetry_equiv_pos_as_xyz
  1  'x, y, z'
loop_
 _atom_site_type_symbol
 _atom_site_label
 _atom_site_symmetry_multiplicity
 _atom_site_fract_x
 _atom_site_fract_y
 _atom_site_fract_z
 _atom_site_occupancy
  Mo  Mo0  1  0.06819810  0.04087039  -0.18817725  1
  Mo  Mo1  1  1.45855762  1.54102199  1.45661890  1
  Mo  Mo2  1  3.12331185  -0.05569762  -0.05018079  1
  Mo  Mo3  1  4.65546364  1.51527597  1.61665096  1
  Mo  Mo4  1  6.30695235  -0.06883273  0.05738539  1
  Mo  Mo5  1  7.91643940  1.47571366  1.62205090  1
  Mo  Mo6  1  9.48889489  -0.09150245  0.01688658  1
  Mo  Mo7  1  11.10581181  1.54596826  1.61258513  1
  Mo  Mo8  1  12.71056161  0.05486262  0.02520896  1
  Mo  Mo9  1  14.28316149  1.67738403  1.60251013  1
  Mo  Mo10  1  15.91696772  0.13121836  0.02019032  1
  Mo  Mo11  1  17.32819800  1.72121893  1.69577218  1
