# generated using pymatgen
data_Mo
_symmetry_space_group_name_H-M   'P 1'
_cell_length_a   28.91841060
_cell_length_b   3.16250080
_cell_length_c   3.16250080
_cell_angle_alpha   90.00000000
_cell_angle_beta   90.00000000
_cell_angle_gamma   90.00000000
_symmetry_Int_Tables_number   1
_chemical_formula_structural   Mo
_chemical_formula_sum   Mo12
_cell_volume   289.22491896
_cell_formula_units_Z   12
loop_
 _symmetry_equiv_pos_site_id
 _symmetry_equiv_pos_as_xyz
  1  'x, y, z'
loop_
 _atom_site_type_symbol
 _atom_site_label
 _atom_site_symmetry_multiplicity
 _atom_site_fract_x
 _atom_site_fract_y
 _atom_site_fract_z
 _atom_site_occupancy
  Mo  Mo0  1  0.06245812  0.03509694  -0.19965558  1
  Mo  Mo1  1  1.44502808  1.54068978  1.45131946  1
  Mo  Mo2  1  3.13216303  -0.04985821  -0.05407451  1
  Mo  Mo3  1  4.63961073  1.50259030  1.61017115  1
  Mo  Mo4  1  6.31115926  -0.08024972  0.05448852  1
  Mo  Mo5  1  7.91779938  1.47297059  1.62850437  1
  Mo  Mo6  1  9.48907374  -0.08965316  0.02238142  1
  Mo  Mo7  1  11.10496202  1.54260040  1.61891038  1
  Mo  Mo8  1  12.71202125  0.06004026  0.01642338  1
  Mo  Mo9  1  14.28880457  1.67402083  1.60934815  1
  Mo  Mo10  1  15.92428713  0.14843291  0.03692533  1
  Mo  Mo11  1  17.33515116  1.73082046  1.69275934  1
