# generated using pymatgen
data_Mo
_symmetry_space_group_name_H-M   'P 1'
_cell_length_a   28.91841060
_cell_length_b   3.16250080
_cell_length_c   3.16250080
_cell_angle_alpha   90.00000000
_cell_angle_beta   90.00000000
_cell_angle_gamma   90.00000000
_symmetry_Int_Tables_number   1
_chemical_formula_structural   Mo
_chemical_formula_sum   Mo12
_cell_volume   289.22491896
_cell_formula_units_Z   12
loop_
 _symmetry_equiv_pos_site_id
 _symmetry_equiv_pos_as_xyz
  1  'x, y, z'
loop_
 _atom_site_type_symbol
 _atom_site_label
 _atom_site_symmetry_multiplicity
 _atom_site_fract_x
 _atom_site_fract_y
 _atom_site_fract_z
 _atom_site_occupancy
  Mo  Mo0  1  0.05642402  0.02772486  -0.20947840  1
  Mo  Mo1  1  1.43389791  1.54148651  1.44655070  1
  Mo  Mo2  1  3.13813134  -0.04441714  -0.05748829  1
  Mo  Mo3  1  4.62941519  1.49063678  1.60174307  1
  Mo  Mo4  1  6.31356917  -0.09233160  0.05063751  1
  Mo  Mo5  1  7.91656213  1.47158266  1.63446007  1
  Mo  Mo6  1  9.49134549  -0.08688906  0.02895645  1
  Mo  Mo7  1  11.10378145  1.54067529  1.62431979  1
  Mo  Mo8  1  12.71281479  0.06333673  0.00849859  1
  Mo  Mo9  1  14.29420143  1.67120687  1.61630225  1
  Mo  Mo10  1  15.93112432  0.16418538  0.05478552  1
  Mo  Mo11  1  17.34125123  1.74030414  1.68821415  1
