# generated using pymatgen
data_Mo
_symmetry_space_group_name_H-M   'P 1'
_cell_length_a   28.91841060
_cell_length_b   3.16250080
_cell_length_c   3.16250080
_cell_angle_alpha   90.00000000
_cell_angle_beta   90.00000000
_cell_angle_gamma   90.00000000
_symmetry_Int_Tables_number   1
_chemical_formula_structural   Mo
_chemical_formula_sum   Mo12
_cell_volume   289.22491896
_cell_formula_units_Z   12
loop_
 _symmetry_equiv_pos_site_id
 _symmetry_equiv_pos_as_xyz
  1  'x, y, z'
loop_
 _atom_site_type_symbol
 _atom_site_label
 _atom_site_symmetry_multiplicity
 _atom_site_fract_x
 _atom_site_fract_y
 _atom_site_fract_z
 _atom_site_occupancy
  Mo  Mo0  1  0.05010704  0.01895702  -0.21756038  1
  Mo  Mo1  1  1.42569091  1.54333782  1.44221175  1
  Mo  Mo2  1  3.14012838  -0.04010097  -0.06050218  1
  Mo  Mo3  1  4.62573935  1.48001215  1.59157957  1
  Mo  Mo4  1  6.31395192  -0.10477923  0.04597648  1
  Mo  Mo5  1  7.91276634  1.47140820  1.63969935  1
  Mo  Mo6  1  9.49552002  -0.08349130  0.03647935  1
  Mo  Mo7  1  11.10242807  1.54043609  1.62853053  1
  Mo  Mo8  1  12.71315822  0.06448737  0.00223813  1
  Mo  Mo9  1  14.29920391  1.66958917  1.62321498  1
  Mo  Mo10  1  15.93742199  0.17789452  0.07306575  1
  Mo  Mo11  1  17.34640232  1.74975057  1.68256810  1
