# generated using pymatgen
data_Mo
_symmetry_space_group_name_H-M   'P 1'
_cell_length_a   28.91841060
_cell_length_b   3.16250080
_cell_length_c   3.16250080
_cell_angle_alpha   90.00000000
_cell_angle_beta   90.00000000
_cell_angle_gamma   90.00000000
_symmetry_Int_Tables_number   1
_chemical_formula_structural   Mo
_chemical_formula_sum   Mo12
_cell_volume   289.22491896
_cell_formula_units_Z   12
loop_
 _symmetry_equiv_pos_site_id
 _symmetry_equiv_pos_as_xyz
  1  'x, y, z'
loop_
 _atom_site_type_symbol
 _atom_site_label
 _atom_site_symmetry_multiplicity
 _atom_site_fract_x
 _atom_site_fract_y
 _atom_site_fract_z
 _atom_site_occupancy
  Mo  Mo0  1  0.04357825  0.00903709  -0.22385946  1
  Mo  Mo1  1  1.42070590  1.54607435  1.43825861  1
  Mo  Mo2  1  3.13764571  -0.03749700  -0.06332423  1
  Mo  Mo3  1  4.62872772  1.47118309  1.58003120  1
  Mo  Mo4  1  6.31224801  -0.11721484  0.04062892  1
  Mo  Mo5  1  7.90680339  1.47223875  1.64404044  1
  Mo  Mo6  1  9.50109792  -0.07969063  0.04472710  1
  Mo  Mo7  1  11.10111420  1.54200016  1.63139175  1
  Mo  Mo8  1  12.71329207  0.06341736  -0.00169708  1
  Mo  Mo9  1  14.30359843  1.66963862  1.62999643  1
  Mo  Mo10  1  15.94312187  0.18910994  0.09103468  1
  Mo  Mo11  1  17.35058501  1.75920451  1.67627306  1
