# generated using pymatgen
data_Mo
_symmetry_space_group_name_H-M   'P 1'
_cell_length_a   28.91841060
_cell_length_b   3.16250080
_cell_length_c   3.16250080
_cell_angle_alpha   90.00000000
_cell_angle_beta   90.00000000
_cell_angle_gamma   90.00000000
_symmetry_Int_Tables_number   1
_chemical_formula_structural   Mo
_chemical_formula_sum   Mo12
_cell_volume   289.22491896
_cell_formula_units_Z   12
loop_
 _symmetry_equiv_pos_site_id
 _symmetry_equiv_pos_as_xyz
  1  'x, y, z'
loop_
 _atom_site_type_symbol
 _atom_site_label
 _atom_site_symmetry_multiplicity
 _atom_site_fract_x
 _atom_site_fract_y
 _atom_site_fract_z
 _atom_site_occupancy
  Mo  Mo0  1  0.03701975  -0.00175460  -0.22837031  1
  Mo  Mo1  1  1.41902545  1.54943657  1.43469759  1
  Mo  Mo2  1  3.13076659  -0.03698381  -0.06627050  1
  Mo  Mo3  1  4.63776988  1.46442331  1.56757497  1
  Mo  Mo4  1  6.30857559  -0.12918371  0.03469957  1
  Mo  Mo5  1  7.89940371  1.47380955  1.64733259  1
  Mo  Mo6  1  9.50727629  -0.07565693  0.05339174  1
  Mo  Mo7  1  11.10006311  1.54534451  1.63290140  1
  Mo  Mo8  1  12.71348048  0.06025444  -0.00282267  1
  Mo  Mo9  1  14.30715807  1.67161740  1.63662064  1
  Mo  Mo10  1  15.94814538  0.19752533  0.10795386  1
  Mo  Mo11  1  17.35383413  1.76866936  1.66979254  1
