# generated using pymatgen
data_Mo
_symmetry_space_group_name_H-M   'P 1'
_cell_length_a   28.91841060
_cell_length_b   3.16250080
_cell_length_c   3.16250080
_cell_angle_alpha   90.00000000
_cell_angle_beta   90.00000000
_cell_angle_gamma   90.00000000
_symmetry_Int_Tables_number   1
_chemical_formula_structural   Mo
_chemical_formula_sum   Mo12
_cell_volume   289.22491896
_cell_formula_units_Z   12
loop_
 _symmetry_equiv_pos_site_id
 _symmetry_equiv_pos_as_xyz
  1  'x, y, z'
loop_
 _atom_site_type_symbol
 _atom_site_label
 _atom_site_symmetry_multiplicity
 _atom_site_fract_x
 _atom_site_fract_y
 _atom_site_fract_z
 _atom_site_occupancy
  Mo  Mo0  1  0.03067139  -0.01312256  -0.23111653  1
  Mo  Mo1  1  1.42051456  1.55308545  1.43156769  1
  Mo  Mo2  1  3.12014892  -0.03869750  -0.06971948  1
  Mo  Mo3  1  4.65157570  1.45977898  1.55476351  1
  Mo  Mo4  1  6.30320903  -0.14017513  0.02827164  1
  Mo  Mo5  1  7.89151292  1.47582087  1.64945401  1
  Mo  Mo6  1  9.51311702  -0.07149682  0.06210240  1
  Mo  Mo7  1  11.09952406  1.55030374  1.63321320  1
  Mo  Mo8  1  12.71395693  0.05532983  -0.00085796  1
  Mo  Mo9  1  14.30965315  1.67556445  1.64311935  1
  Mo  Mo10  1  15.95237412  0.20300181  0.12312466  1
  Mo  Mo11  1  17.35626064  1.77810830  1.66357889  1
