# generated using pymatgen
data_Mo
_symmetry_space_group_name_H-M   'P 1'
_cell_length_a   28.91841060
_cell_length_b   3.16250080
_cell_length_c   3.16250080
_cell_angle_alpha   90.00000000
_cell_angle_beta   90.00000000
_cell_angle_gamma   90.00000000
_symmetry_Int_Tables_number   1
_chemical_formula_structural   Mo
_chemical_formula_sum   Mo12
_cell_volume   289.22491896
_cell_formula_units_Z   12
loop_
 _symmetry_equiv_pos_site_id
 _symmetry_equiv_pos_as_xyz
  1  'x, y, z'
loop_
 _atom_site_type_symbol
 _atom_site_label
 _atom_site_symmetry_multiplicity
 _atom_site_fract_x
 _atom_site_fract_y
 _atom_site_fract_z
 _atom_site_occupancy
  Mo  Mo0  1  0.02485628  -0.02475816  -0.23213612  1
  Mo  Mo1  1  1.42489223  1.55660693  1.42891684  1
  Mo  Mo2  1  3.10685799  -0.04254567  -0.07404411  1
  Mo  Mo3  1  4.66835546  1.45709248  1.54217066  1
  Mo  Mo4  1  6.29658203  -0.14963912  0.02141057  1
  Mo  Mo5  1  7.88416005  1.47796260  1.65030723  1
  Mo  Mo6  1  9.51769013  -0.06726515  0.07044252  1
  Mo  Mo7  1  11.09971635  1.55658419  1.63262179  1
  Mo  Mo8  1  12.71487597  0.04915889  0.00427858  1
  Mo  Mo9  1  14.31092492  1.68129564  1.64955633  1
  Mo  Mo10  1  15.95562602  0.20557436  0.13591923  1
  Mo  Mo11  1  17.35798103  1.78743442  1.65805790  1
