# generated using pymatgen
data_Mo
_symmetry_space_group_name_H-M   'P 1'
_cell_length_a   28.91841060
_cell_length_b   3.16250080
_cell_length_c   3.16250080
_cell_angle_alpha   90.00000000
_cell_angle_beta   90.00000000
_cell_angle_gamma   90.00000000
_symmetry_Int_Tables_number   1
_chemical_formula_structural   Mo
_chemical_formula_sum   Mo12
_cell_volume   289.22491896
_cell_formula_units_Z   12
loop_
 _symmetry_equiv_pos_site_id
 _symmetry_equiv_pos_as_xyz
  1  'x, y, z'
loop_
 _atom_site_type_symbol
 _atom_site_label
 _atom_site_symmetry_multiplicity
 _atom_site_fract_x
 _atom_site_fract_y
 _atom_site_fract_z
 _atom_site_occupancy
  Mo  Mo0  1  0.01991245  -0.03635044  -0.23147979  1
  Mo  Mo1  1  1.43162176  1.55952062  1.42679059  1
  Mo  Mo2  1  3.09220744  -0.04825102  -0.07955142  1
  Mo  Mo3  1  4.68603959  1.45605967  1.53033068  1
  Mo  Mo4  1  6.28928978  -0.15702582  0.01416356  1
  Mo  Mo5  1  7.87833574  1.47994090  1.64982079  1
  Mo  Mo6  1  9.52021607  -0.06297452  0.07797768  1
  Mo  Mo7  1  11.10079163  1.56379136  1.63153149  1
  Mo  Mo8  1  12.71629229  0.04239589  0.01248177  1
  Mo  Mo9  1  14.31090635  1.68843233  1.65600474  1
  Mo  Mo10  1  15.95775751  0.20545151  0.14582927  1
  Mo  Mo11  1  17.35914785  1.79651094  1.65360203  1
