# generated using pymatgen
data_Mo
_symmetry_space_group_name_H-M   'P 1'
_cell_length_a   28.91841060
_cell_length_b   3.16250080
_cell_length_c   3.16250080
_cell_angle_alpha   90.00000000
_cell_angle_beta   90.00000000
_cell_angle_gamma   90.00000000
_symmetry_Int_Tables_number   1
_chemical_formula_structural   Mo
_chemical_formula_sum   Mo12
_cell_volume   289.22491896
_cell_formula_units_Z   12
loop_
 _symmetry_equiv_pos_site_id
 _symmetry_equiv_pos_as_xyz
  1  'x, y, z'
loop_
 _atom_site_type_symbol
 _atom_site_label
 _atom_site_symmetry_multiplicity
 _atom_site_fract_x
 _atom_site_fract_y
 _atom_site_fract_z
 _atom_site_occupancy
  Mo  Mo0  1  0.01622435  -0.04759941  -0.22920969  1
  Mo  Mo1  1  1.44003943  1.56130431  1.42521018  1
  Mo  Mo2  1  3.07758978  -0.05540356  -0.08643632  1
  Mo  Mo3  1  4.70252656  1.45629624  1.51968683  1
  Mo  Mo4  1  6.28203105  -0.16184592  0.00656070  1
  Mo  Mo5  1  7.87484106  1.48151296  1.64795782  1
  Mo  Mo6  1  9.52018995  -0.05860429  0.08429245  1
  Mo  Mo7  1  11.10278580  1.57146912  1.63041236  1
  Mo  Mo8  1  12.71815235  0.03577228  0.02348456  1
  Mo  Mo9  1  14.30965471  1.69644622  1.66252898  1
  Mo  Mo10  1  15.95861666  0.20300040  0.15250510  1
  Mo  Mo11  1  17.35986677  1.80515307  1.65050844  1
