# generated using pymatgen
data_Mo
_symmetry_space_group_name_H-M   'P 1'
_cell_length_a   28.91841060
_cell_length_b   3.16250080
_cell_length_c   3.16250080
_cell_angle_alpha   90.00000000
_cell_angle_beta   90.00000000
_cell_angle_gamma   90.00000000
_symmetry_Int_Tables_number   1
_chemical_formula_structural   Mo
_chemical_formula_sum   Mo12
_cell_volume   289.22491896
_cell_formula_units_Z   12
loop_
 _symmetry_equiv_pos_site_id
 _symmetry_equiv_pos_as_xyz
  1  'x, y, z'
loop_
 _atom_site_type_symbol
 _atom_site_label
 _atom_site_symmetry_multiplicity
 _atom_site_fract_x
 _atom_site_fract_y
 _atom_site_fract_z
 _atom_site_occupancy
  Mo  Mo0  1  0.01416670  -0.05823399  -0.22540314  1
  Mo  Mo1  1  1.44930987  1.56143017  1.42416543  1
  Mo  Mo2  1  3.06438680  -0.06350792  -0.09475793  1
  Mo  Mo3  1  4.71592972  1.45739640  1.51055709  1
  Mo  Mo4  1  6.27555026  -0.16373069  -0.00137803  1
  Mo  Mo5  1  7.87418798  1.48253162  1.64472270  1
  Mo  Mo6  1  9.51745061  -0.05412496  0.08902078  1
  Mo  Mo7  1  11.10559546  1.57914468  1.62975074  1
  Mo  Mo8  1  12.72028595  0.03003501  0.03688719  1
  Mo  Mo9  1  14.30735273  1.70471340  1.66917532  1
  Mo  Mo10  1  15.95810358  0.19870646  0.15578012  1
  Mo  Mo11  1  17.36019881  1.81314123  1.64898112  1
