# generated using pymatgen
data_Mo
_symmetry_space_group_name_H-M   'P 1'
_cell_length_a   28.91841060
_cell_length_b   3.16250080
_cell_length_c   3.16250080
_cell_angle_alpha   90.00000000
_cell_angle_beta   90.00000000
_cell_angle_gamma   90.00000000
_symmetry_Int_Tables_number   1
_chemical_formula_structural   Mo
_chemical_formula_sum   Mo12
_cell_volume   289.22491896
_cell_formula_units_Z   12
loop_
 _symmetry_equiv_pos_site_id
 _symmetry_equiv_pos_as_xyz
  1  'x, y, z'
loop_
 _atom_site_type_symbol
 _atom_site_label
 _atom_site_symmetry_multiplicity
 _atom_site_fract_x
 _atom_site_fract_y
 _atom_site_fract_z
 _atom_site_occupancy
  Mo  Mo0  1  0.01410581  -0.06803125  -0.22015815  1
  Mo  Mo1  1  1.45851193  1.55941561  1.42360408  1
  Mo  Mo2  1  3.05386411  -0.07203423  -0.10442419  1
  Mo  Mo3  1  4.72475880  1.45898138  1.50311032  1
  Mo  Mo4  1  6.27054446  -0.16248356  -0.00962435  1
  Mo  Mo5  1  7.87652914  1.48298432  1.64016558  1
  Mo  Mo6  1  9.51220246  -0.04953127  0.09187138  1
  Mo  Mo7  1  11.10897173  1.58638019  1.63000466  1
  Mo  Mo8  1  12.72242402  0.02589088  0.05218391  1
  Mo  Mo9  1  14.30431217  1.71256485  1.67596692  1
  Mo  Mo10  1  15.95617112  0.19312681  0.15567800  1
  Mo  Mo11  1  17.36012273  1.82023768  1.64912323  1
