# generated using pymatgen
data_Mo
_symmetry_space_group_name_H-M   'P 1'
_cell_length_a   28.91841060
_cell_length_b   3.16250080
_cell_length_c   3.16250080
_cell_angle_alpha   90.00000000
_cell_angle_beta   90.00000000
_cell_angle_gamma   90.00000000
_symmetry_Int_Tables_number   1
_chemical_formula_structural   Mo
_chemical_formula_sum   Mo12
_cell_volume   289.22491896
_cell_formula_units_Z   12
loop_
 _symmetry_equiv_pos_site_id
 _symmetry_equiv_pos_as_xyz
  1  'x, y, z'
loop_
 _atom_site_type_symbol
 _atom_site_label
 _atom_site_symmetry_multiplicity
 _atom_site_fract_x
 _atom_site_fract_y
 _atom_site_fract_z
 _atom_site_occupancy
  Mo  Mo0  1  0.01632862  -0.07683064  -0.21359756  1
  Mo  Mo1  1  1.46671982  1.55488010  1.42342639  1
  Mo  Mo2  1  3.04709943  -0.08047616  -0.11518495  1
  Mo  Mo3  1  4.72808906  1.46075012  1.49735534  1
  Mo  Mo4  1  6.26754389  -0.15811132  -0.01811429  1
  Mo  Mo5  1  7.88162895  1.48300374  1.63438386  1
  Mo  Mo6  1  9.50499315  -0.04486772  0.09264040  1
  Mo  Mo7  1  11.11254047  1.59281322  1.63156963  1
  Mo  Mo8  1  12.72422614  0.02395465  0.06877801  1
  Mo  Mo9  1  14.30092827  1.71934105  1.68289921  1
  Mo  Mo10  1  15.95288091  0.18683852  0.15240894  1
  Mo  Mo11  1  17.35953977  1.82620583  1.65093643  1
