# generated using pymatgen
data_Mo
_symmetry_space_group_name_H-M   'P 1'
_cell_length_a   28.91841060
_cell_length_b   3.16250080
_cell_length_c   3.16250080
_cell_angle_alpha   90.00000000
_cell_angle_beta   90.00000000
_cell_angle_gamma   90.00000000
_symmetry_Int_Tables_number   1
_chemical_formula_structural   Mo
_chemical_formula_sum   Mo12
_cell_volume   289.22491896
_cell_formula_units_Z   12
loop_
 _symmetry_equiv_pos_site_id
 _symmetry_equiv_pos_as_xyz
  1  'x, y, z'
loop_
 _atom_site_type_symbol
 _atom_site_label
 _atom_site_symmetry_multiplicity
 _atom_site_fract_x
 _atom_site_fract_y
 _atom_site_fract_z
 _atom_site_occupancy
  Mo  Mo0  1  0.02101458  -0.08454620  -0.20587062  1
  Mo  Mo1  1  1.47315458  1.54759555  1.42348706  1
  Mo  Mo2  1  3.04484760  -0.08841381  -0.12664002  1
  Mo  Mo3  1  4.72569701  1.46251560  1.49313208  1
  Mo  Mo4  1  6.26681254  -0.15083200  -0.02673543  1
  Mo  Mo5  1  7.88885939  1.48285480  1.62751630  1
  Mo  Mo6  1  9.49668166  -0.04023160  0.09122355  1
  Mo  Mo7  1  11.11586721  1.59819213  1.63475099  1
  Mo  Mo8  1  12.72532014  0.02468628  0.08601351  1
  Mo  Mo9  1  14.29760786  1.72446319  1.68994140  1
  Mo  Mo10  1  15.94836316  0.18038497  0.14635589  1
  Mo  Mo11  1  17.35829276  1.83083249  1.65432669  1
