# generated using pymatgen
data_Mo
_symmetry_space_group_name_H-M   'P 1'
_cell_length_a   28.91841060
_cell_length_b   3.16250080
_cell_length_c   3.16250080
_cell_angle_alpha   90.00000000
_cell_angle_beta   90.00000000
_cell_angle_gamma   90.00000000
_symmetry_Int_Tables_number   1
_chemical_formula_structural   Mo
_chemical_formula_sum   Mo12
_cell_volume   289.22491896
_cell_formula_units_Z   12
loop_
 _symmetry_equiv_pos_site_id
 _symmetry_equiv_pos_as_xyz
  1  'x, y, z'
loop_
 _atom_site_type_symbol
 _atom_site_label
 _atom_site_symmetry_multiplicity
 _atom_site_fract_x
 _atom_site_fract_y
 _atom_site_fract_z
 _atom_site_occupancy
  Mo  Mo0  1  0.02817688  -0.09117230  -0.19715006  1
  Mo  Mo1  1  1.47731542  1.53752217  1.42360936  1
  Mo  Mo2  1  3.04747090  -0.09555647  -0.13826512  1
  Mo  Mo3  1  4.71808022  1.46421073  1.49012470  1
  Mo  Mo4  1  6.26829090  -0.14104764  -0.03533001  1
  Mo  Mo5  1  7.89726674  1.48290039  1.61973166  1
  Mo  Mo6  1  9.48834012  -0.03576095  0.08762248  1
  Mo  Mo7  1  11.11850964  1.60239606  1.63974364  1
  Mo  Mo8  1  12.72535392  0.02833538  0.10321460  1
  Mo  Mo9  1  14.29471823  1.72749846  1.69703472  1
  Mo  Mo10  1  15.94283217  0.17422873  0.13805435  1
  Mo  Mo11  1  17.35616333  1.83394686  1.65911109  1
