# generated using pymatgen
data_Mo
_symmetry_space_group_name_H-M   'P 1'
_cell_length_a   28.91841060
_cell_length_b   3.16250080
_cell_length_c   3.16250080
_cell_angle_alpha   90.00000000
_cell_angle_beta   90.00000000
_cell_angle_gamma   90.00000000
_symmetry_Int_Tables_number   1
_chemical_formula_structural   Mo
_chemical_formula_sum   Mo12
_cell_volume   289.22491896
_cell_formula_units_Z   12
loop_
 _symmetry_equiv_pos_site_id
 _symmetry_equiv_pos_as_xyz
  1  'x, y, z'
loop_
 _atom_site_type_symbol
 _atom_site_label
 _atom_site_symmetry_multiplicity
 _atom_site_fract_x
 _atom_site_fract_y
 _atom_site_fract_z
 _atom_site_occupancy
  Mo  Mo0  1  0.04908160  -0.10152234  -0.17752155  1
  Mo  Mo1  1  1.47852396  1.50985729  1.42334062  1
  Mo  Mo2  1  3.06641014  -0.10702564  -0.15956450  1
  Mo  Mo3  1  4.69215252  1.46757661  1.48594655  1
  Mo  Mo4  1  6.27635745  -0.11617803  -0.05169781  1
  Mo  Mo5  1  7.91293836  1.48524427  1.60215507  1
  Mo  Mo6  1  9.47609499  -0.02792789  0.07441792  1
  Mo  Mo7  1  11.12028939  1.60744991  1.65529121  1
  Mo  Mo8  1  12.72128182  0.04412093  0.13494808  1
  Mo  Mo9  1  14.29098048  1.72661617  1.71095042  1
  Mo  Mo10  1  15.92990137  0.16411564  0.11743851  1
  Mo  Mo11  1  17.34850636  1.83517450  1.67179690  1
