# generated using pymatgen
data_Mo
_symmetry_space_group_name_H-M   'P 1'
_cell_length_a   28.91841060
_cell_length_b   3.16250080
_cell_length_c   3.16250080
_cell_angle_alpha   90.00000000
_cell_angle_beta   90.00000000
_cell_angle_gamma   90.00000000
_symmetry_Int_Tables_number   1
_chemical_formula_structural   Mo
_chemical_formula_sum   Mo12
_cell_volume   289.22491896
_cell_formula_units_Z   12
loop_
 _symmetry_equiv_pos_site_id
 _symmetry_equiv_pos_as_xyz
  1  'x, y, z'
loop_
 _atom_site_type_symbol
 _atom_site_label
 _atom_site_symmetry_multiplicity
 _atom_site_fract_x
 _atom_site_fract_y
 _atom_site_fract_z
 _atom_site_occupancy
  Mo  Mo0  1  0.06196188  -0.10560165  -0.16705038  1
  Mo  Mo1  1  1.47636609  1.49314318  1.42269713  1
  Mo  Mo2  1  3.08118046  -0.11145479  -0.16799544  1
  Mo  Mo3  1  4.67725316  1.46945760  1.48375571  1
  Mo  Mo4  1  6.28183607  -0.10233323  -0.05912491  1
  Mo  Mo5  1  7.91796165  1.48833348  1.59272732  1
  Mo  Mo6  1  9.47406978  -0.02480290  0.06537343  1
  Mo  Mo7  1  11.11899634  1.60866887  1.66554794  1
  Mo  Mo8  1  12.71705796  0.05547443  0.14838734  1
  Mo  Mo9  1  14.29002538  1.72294203  1.71744813  1
  Mo  Mo10  1  15.92306382  0.16052304  0.10667744  1
  Mo  Mo11  1  17.34274587  1.83315135  1.67905770  1
