# generated using pymatgen
data_Mo
_symmetry_space_group_name_H-M   'P 1'
_cell_length_a   28.91841060
_cell_length_b   3.16250080
_cell_length_c   3.16250080
_cell_angle_alpha   90.00000000
_cell_angle_beta   90.00000000
_cell_angle_gamma   90.00000000
_symmetry_Int_Tables_number   1
_chemical_formula_structural   Mo
_chemical_formula_sum   Mo12
_cell_volume   289.22491896
_cell_formula_units_Z   12
loop_
 _symmetry_equiv_pos_site_id
 _symmetry_equiv_pos_as_xyz
  1  'x, y, z'
loop_
 _atom_site_type_symbol
 _atom_site_label
 _atom_site_symmetry_multiplicity
 _atom_site_fract_x
 _atom_site_fract_y
 _atom_site_fract_z
 _atom_site_occupancy
  Mo  Mo0  1  0.07563193  -0.10927525  -0.15645457  1
  Mo  Mo1  1  1.47339564  1.47531857  1.42166187  1
  Mo  Mo2  1  3.09790735  -0.11521776  -0.17422908  1
  Mo  Mo3  1  4.66351845  1.47161724  1.48085909  1
  Mo  Mo4  1  6.28752461  -0.08836650  -0.06587933  1
  Mo  Mo5  1  7.92001984  1.49310684  1.58309077  1
  Mo  Mo6  1  9.47547010  -0.02225645  0.05526275  1
  Mo  Mo7  1  11.11617368  1.60939822  1.67700467  1
  Mo  Mo8  1  12.71157396  0.06824001  0.15966721  1
  Mo  Mo9  1  14.28930847  1.71764162  1.72335103  1
  Mo  Mo10  1  15.91630474  0.15796336  0.09669654  1
  Mo  Mo11  1  17.33568969  1.82933149  1.68647046  1
