# generated using pymatgen
data_Mo
_symmetry_space_group_name_H-M   'P 1'
_cell_length_a   28.91841060
_cell_length_b   3.16250080
_cell_length_c   3.16250080
_cell_angle_alpha   90.00000000
_cell_angle_beta   90.00000000
_cell_angle_gamma   90.00000000
_symmetry_Int_Tables_number   1
_chemical_formula_structural   Mo
_chemical_formula_sum   Mo12
_cell_volume   289.22491896
_cell_formula_units_Z   12
loop_
 _symmetry_equiv_pos_site_id
 _symmetry_equiv_pos_as_xyz
  1  'x, y, z'
loop_
 _atom_site_type_symbol
 _atom_site_label
 _atom_site_symmetry_multiplicity
 _atom_site_fract_x
 _atom_site_fract_y
 _atom_site_fract_z
 _atom_site_occupancy
  Mo  Mo0  1  0.08934689  -0.11282672  -0.14597582  1
  Mo  Mo1  1  1.47063504  1.45707467  1.42030046  1
  Mo  Mo2  1  3.11520731  -0.11850169  -0.17789365  1
  Mo  Mo3  1  4.65261972  1.47413442  1.47689722  1
  Mo  Mo4  1  6.29297337  -0.07482783  -0.07190704  1
  Mo  Mo5  1  7.91878773  1.49972903  1.57338236  1
  Mo  Mo6  1  9.48020498  -0.02021568  0.04463782  1
  Mo  Mo7  1  11.11195212  1.60998036  1.68912705  1
  Mo  Mo8  1  12.70517910  0.08155859  0.16855005  1
  Mo  Mo9  1  14.28836782  1.71132180  1.72841383  1
  Mo  Mo10  1  15.90978636  0.15635530  0.08827065  1
  Mo  Mo11  1  17.32745802  1.82371915  1.69369849  1
