# generated using pymatgen
data_Mo
_symmetry_space_group_name_H-M   'P 1'
_cell_length_a   28.91841060
_cell_length_b   3.16250080
_cell_length_c   3.16250080
_cell_angle_alpha   90.00000000
_cell_angle_beta   90.00000000
_cell_angle_gamma   90.00000000
_symmetry_Int_Tables_number   1
_chemical_formula_structural   Mo
_chemical_formula_sum   Mo12
_cell_volume   289.22491896
_cell_formula_units_Z   12
loop_
 _symmetry_equiv_pos_site_id
 _symmetry_equiv_pos_as_xyz
  1  'x, y, z'
loop_
 _atom_site_type_symbol
 _atom_site_label
 _atom_site_symmetry_multiplicity
 _atom_site_fract_x
 _atom_site_fract_y
 _atom_site_fract_z
 _atom_site_occupancy
  Mo  Mo0  1  0.10231987  -0.11655017  -0.13585804  1
  Mo  Mo1  1  1.46915771  1.43910784  1.41876178  1
  Mo  Mo2  1  3.13174830  -0.12147718  -0.17880240  1
  Mo  Mo3  1  4.64591778  1.47705062  1.47166914  1
  Mo  Mo4  1  6.29786453  -0.06218911  -0.07722033  1
  Mo  Mo5  1  7.91440539  1.50823380  1.56371994  1
  Mo  Mo6  1  9.48764438  -0.01851561  0.03413171  1
  Mo  Mo7  1  11.10660234  1.61076292  1.70124302  1
  Mo  Mo8  1  12.69833939  0.09451768  0.17493427  1
  Mo  Mo9  1  14.28668571  1.70467638  1.73240188  1
  Mo  Mo10  1  15.90357132  0.15553513  0.08208830  1
  Mo  Mo11  1  17.31826175  1.81634911  1.70043215  1
