# generated using pymatgen
data_Mo
_symmetry_space_group_name_H-M   'P 1'
_cell_length_a   28.91841060
_cell_length_b   3.16250080
_cell_length_c   3.16250080
_cell_angle_alpha   90.00000000
_cell_angle_beta   90.00000000
_cell_angle_gamma   90.00000000
_symmetry_Int_Tables_number   1
_chemical_formula_structural   Mo
_chemical_formula_sum   Mo12
_cell_volume   289.22491896
_cell_formula_units_Z   12
loop_
 _symmetry_equiv_pos_site_id
 _symmetry_equiv_pos_as_xyz
  1  'x, y, z'
loop_
 _atom_site_type_symbol
 _atom_site_label
 _atom_site_symmetry_multiplicity
 _atom_site_fract_x
 _atom_site_fract_y
 _atom_site_fract_z
 _atom_site_occupancy
  Mo  Mo0  1  0.12328166  -0.12565570  -0.11767372  1
  Mo  Mo1  1  1.47381517  1.40659216  1.41610931  1
  Mo  Mo2  1  3.15824112  -0.12699870  -0.17267933  1
  Mo  Mo3  1  4.64830848  1.48405640  1.45762449  1
  Mo  Mo4  1  6.30537598  -0.04100767  -0.08607844  1
  Mo  Mo5  1  7.89877281  1.53038649  1.54496260  1
  Mo  Mo6  1  9.50587342  -0.01509398  0.01615237  1
  Mo  Mo7  1  11.09421983  1.61414362  1.72231126  1
  Mo  Mo8  1  12.68538419  0.11595986  0.18039305  1
  Mo  Mo9  1  14.27920065  1.69315214  1.73648034  1
  Mo  Mo10  1  15.89188213  0.15528517  0.07846809  1
  Mo  Mo11  1  17.29816303  1.79668163  1.71143138  1
