# generated using pymatgen
data_Mo
_symmetry_space_group_name_H-M   'P 1'
_cell_length_a   28.91841060
_cell_length_b   3.16250080
_cell_length_c   3.16250080
_cell_angle_alpha   90.00000000
_cell_angle_beta   90.00000000
_cell_angle_gamma   90.00000000
_symmetry_Int_Tables_number   1
_chemical_formula_structural   Mo
_chemical_formula_sum   Mo12
_cell_volume   289.22491896
_cell_formula_units_Z   12
loop_
 _symmetry_equiv_pos_site_id
 _symmetry_equiv_pos_as_xyz
  1  'x, y, z'
loop_
 _atom_site_type_symbol
 _atom_site_label
 _atom_site_symmetry_multiplicity
 _atom_site_fract_x
 _atom_site_fract_y
 _atom_site_fract_z
 _atom_site_occupancy
  Mo  Mo0  1  0.13035279  -0.13154380  -0.11005799  1
  Mo  Mo1  1  1.48120845  1.39316958  1.41559456  1
  Mo  Mo2  1  3.16693825  -0.12969821  -0.16634713  1
  Mo  Mo3  1  4.65767569  1.48805358  1.44943518  1
  Mo  Mo4  1  6.30795908  -0.03288617  -0.08994216  1
  Mo  Mo5  1  7.88952977  1.54349982  1.53610293  1
  Mo  Mo6  1  9.51367928  -0.01272852  0.00989933  1
  Mo  Mo7  1  11.08822762  1.61716557  1.72965326  1
  Mo  Mo8  1  12.68020755  0.12308914  0.17977133  1
  Mo  Mo9  1  14.27274928  1.68941708  1.73645663  1
  Mo  Mo10  1  15.88612784  0.15527916  0.08154686  1
  Mo  Mo11  1  17.28786284  1.78468417  1.71538862  1
