# generated using pymatgen
data_Mo
_symmetry_space_group_name_H-M   'P 1'
_cell_length_a   28.91841060
_cell_length_b   3.16250080
_cell_length_c   3.16250080
_cell_angle_alpha   90.00000000
_cell_angle_beta   90.00000000
_cell_angle_gamma   90.00000000
_symmetry_Int_Tables_number   1
_chemical_formula_structural   Mo
_chemical_formula_sum   Mo12
_cell_volume   289.22491896
_cell_formula_units_Z   12
loop_
 _symmetry_equiv_pos_site_id
 _symmetry_equiv_pos_as_xyz
  1  'x, y, z'
loop_
 _atom_site_type_symbol
 _atom_site_label
 _atom_site_symmetry_multiplicity
 _atom_site_fract_x
 _atom_site_fract_y
 _atom_site_fract_z
 _atom_site_occupancy
  Mo  Mo0  1  0.13499564  -0.13856583  -0.10366761  1
  Mo  Mo1  1  1.49220141  1.38224485  1.41603760  1
  Mo  Mo2  1  3.17246253  -0.13240956  -0.15859541  1
  Mo  Mo3  1  4.67178991  1.49227739  1.44117466  1
  Mo  Mo4  1  6.30986117  -0.02650861  -0.09369292  1
  Mo  Mo5  1  7.88086084  1.55745658  1.52778884  1
  Mo  Mo6  1  9.51871548  -0.00947823  0.00606220  1
  Mo  Mo7  1  11.08303214  1.62119710  1.73392424  1
  Mo  Mo8  1  12.67629948  0.12725087  0.17719697  1
  Mo  Mo9  1  14.26436739  1.68754158  1.73516223  1
  Mo  Mo10  1  15.88018839  0.15495957  0.08785143  1
  Mo  Mo11  1  17.27774408  1.77153569  1.71825916  1
