# generated using pymatgen
data_Mo
_symmetry_space_group_name_H-M   'P 1'
_cell_length_a   28.91841060
_cell_length_b   3.16250080
_cell_length_c   3.16250080
_cell_angle_alpha   90.00000000
_cell_angle_beta   90.00000000
_cell_angle_gamma   90.00000000
_symmetry_Int_Tables_number   1
_chemical_formula_structural   Mo
_chemical_formula_sum   Mo12
_cell_volume   289.22491896
_cell_formula_units_Z   12
loop_
 _symmetry_equiv_pos_site_id
 _symmetry_equiv_pos_as_xyz
  1  'x, y, z'
loop_
 _atom_site_type_symbol
 _atom_site_label
 _atom_site_symmetry_multiplicity
 _atom_site_fract_x
 _atom_site_fract_y
 _atom_site_fract_z
 _atom_site_occupancy
  Mo  Mo0  1  0.13752873  -0.14679747  -0.09859729  1
  Mo  Mo1  1  1.50643405  1.37411449  1.41770721  1
  Mo  Mo2  1  3.17516536  -0.13514906  -0.15011230  1
  Mo  Mo3  1  4.68956142  1.49663668  1.43348336  1
  Mo  Mo4  1  6.31123660  -0.02181184  -0.09753896  1
  Mo  Mo5  1  7.87387301  1.57179533  1.52019917  1
  Mo  Mo6  1  9.51997266  -0.00503883  0.00482001  1
  Mo  Mo7  1  11.07896331  1.62620834  1.73464393  1
  Mo  Mo8  1  12.67370039  0.12830677  0.17289290  1
  Mo  Mo9  1  14.25423970  1.68766851  1.73280738  1
  Mo  Mo10  1  15.87386711  0.15406877  0.09707969  1
  Mo  Mo11  1  17.26797614  1.75749972  1.72011629  1
