# generated using pymatgen
data_Mo
_symmetry_space_group_name_H-M   'P 1'
_cell_length_a   28.91841060
_cell_length_b   3.16250080
_cell_length_c   3.16250080
_cell_angle_alpha   90.00000000
_cell_angle_beta   90.00000000
_cell_angle_gamma   90.00000000
_symmetry_Int_Tables_number   1
_chemical_formula_structural   Mo
_chemical_formula_sum   Mo12
_cell_volume   289.22491896
_cell_formula_units_Z   12
loop_
 _symmetry_equiv_pos_site_id
 _symmetry_equiv_pos_as_xyz
  1  'x, y, z'
loop_
 _atom_site_type_symbol
 _atom_site_label
 _atom_site_symmetry_multiplicity
 _atom_site_fract_x
 _atom_site_fract_y
 _atom_site_fract_z
 _atom_site_occupancy
  Mo  Mo0  1  0.13856224  -0.15621317  -0.09486517  1
  Mo  Mo1  1  1.52316972  1.36893425  1.42080671  1
  Mo  Mo2  1  3.17567591  -0.13791394  -0.14159086  1
  Mo  Mo3  1  4.70960632  1.50103084  1.42699811  1
  Mo  Mo4  1  6.31229088  -0.01863640  -0.10166526  1
  Mo  Mo5  1  7.86953480  1.58602066  1.51353495  1
  Mo  Mo6  1  9.51696101  0.00083398  0.00609192  1
  Mo  Mo7  1  11.07611732  1.63208491  1.73158746  1
  Mo  Mo8  1  12.67219659  0.12635914  0.16706253  1
  Mo  Mo9  1  14.24276046  1.68973817  1.72968593  1
  Mo  Mo10  1  15.86699050  0.15240592  0.10873957  1
  Mo  Mo11  1  17.25865273  1.74285705  1.72111552  1
