# generated using pymatgen
data_Mo
_symmetry_space_group_name_H-M   'P 1'
_cell_length_a   28.91841060
_cell_length_b   3.16250080
_cell_length_c   3.16250080
_cell_angle_alpha   90.00000000
_cell_angle_beta   90.00000000
_cell_angle_gamma   90.00000000
_symmetry_Int_Tables_number   1
_chemical_formula_structural   Mo
_chemical_formula_sum   Mo12
_cell_volume   289.22491896
_cell_formula_units_Z   12
loop_
 _symmetry_equiv_pos_site_id
 _symmetry_equiv_pos_as_xyz
  1  'x, y, z'
loop_
 _atom_site_type_symbol
 _atom_site_label
 _atom_site_symmetry_multiplicity
 _atom_site_fract_x
 _atom_site_fract_y
 _atom_site_fract_z
 _atom_site_occupancy
  Mo  Mo0  1  0.13893635  -0.16668781  -0.09241787  1
  Mo  Mo1  1  1.54132967  1.36671955  1.42545424  1
  Mo  Mo2  1  3.17478045  -0.14067089  -0.13366548  1
  Mo  Mo3  1  4.73040535  1.50534386  1.42228309  1
  Mo  Mo4  1  6.31325950  -0.01674082  -0.10619681  1
  Mo  Mo5  1  7.86857467  1.59962498  1.50801328  1
  Mo  Mo6  1  9.50978532  0.00830093  0.00953224  1
  Mo  Mo7  1  11.07435198  1.63864333  1.72480684  1
  Mo  Mo8  1  12.67133368  0.12174242  0.15987975  1
  Mo  Mo9  1  14.23050615  1.69349066  1.72614791  1
  Mo  Mo10  1  15.85944994  0.14983923  0.12218730  1
  Mo  Mo11  1  17.24980540  1.72789597  1.72147690  1
