# generated using pymatgen
data_Mo
_symmetry_space_group_name_H-M   'P 1'
_cell_length_a   28.91841060
_cell_length_b   3.16250080
_cell_length_c   3.16250080
_cell_angle_alpha   90.00000000
_cell_angle_beta   90.00000000
_cell_angle_gamma   90.00000000
_symmetry_Int_Tables_number   1
_chemical_formula_structural   Mo
_chemical_formula_sum   Mo12
_cell_volume   289.22491896
_cell_formula_units_Z   12
loop_
 _symmetry_equiv_pos_site_id
 _symmetry_equiv_pos_as_xyz
  1  'x, y, z'
loop_
 _atom_site_type_symbol
 _atom_site_label
 _atom_site_symmetry_multiplicity
 _atom_site_fract_x
 _atom_site_fract_y
 _atom_site_fract_z
 _atom_site_occupancy
  Mo  Mo0  1  0.13959768  -0.17801647  -0.09114340  1
  Mo  Mo1  1  1.55963989  1.36734469  1.43166993  1
  Mo  Mo2  1  3.17333140  -0.14333901  -0.12685052  1
  Mo  Mo3  1  4.75047115  1.50944137  1.41976701  1
  Mo  Mo4  1  6.31440280  -0.01581539  -0.11116448  1
  Mo  Mo5  1  7.87138930  1.61211767  1.50385344  1
  Mo  Mo6  1  9.49913574  0.01742491  0.01455106  1
  Mo  Mo7  1  11.07330928  1.64564803  1.71462027  1
  Mo  Mo8  1  12.67046702  0.11501098  0.15149240  1
  Mo  Mo9  1  14.21817432  1.69847509  1.72256040  1
  Mo  Mo10  1  15.85121144  0.14631647  0.13668465  1
  Mo  Mo11  1  17.24138843  1.71289306  1.72146069  1
