# generated using pymatgen
data_Mo
_symmetry_space_group_name_H-M   'P 1'
_cell_length_a   28.91841060
_cell_length_b   3.16250080
_cell_length_c   3.16250080
_cell_angle_alpha   90.00000000
_cell_angle_beta   90.00000000
_cell_angle_gamma   90.00000000
_symmetry_Int_Tables_number   1
_chemical_formula_structural   Mo
_chemical_formula_sum   Mo12
_cell_volume   289.22491896
_cell_formula_units_Z   12
loop_
 _symmetry_equiv_pos_site_id
 _symmetry_equiv_pos_as_xyz
  1  'x, y, z'
loop_
 _atom_site_type_symbol
 _atom_site_label
 _atom_site_symmetry_multiplicity
 _atom_site_fract_x
 _atom_site_fract_y
 _atom_site_fract_z
 _atom_site_occupancy
  Mo  Mo0  1  0.14146096  -0.18994173  -0.09088982  1
  Mo  Mo1  1  1.57681272  1.37055043  1.43937083  1
  Mo  Mo2  1  3.17218120  -0.14577950  -0.12148993  1
  Mo  Mo3  1  4.76846793  1.51317505  1.41969820  1
  Mo  Mo4  1  6.31598755  -0.01550500  -0.11647954  1
  Mo  Mo5  1  7.87796940  1.62306175  1.50126124  1
  Mo  Mo6  1  9.48617410  0.02816920  0.02037424  1
  Mo  Mo7  1  11.07248179  1.65283439  1.70155664  1
  Mo  Mo8  1  12.66887095  0.10689947  0.14203414  1
  Mo  Mo9  1  14.20645195  1.70407873  1.71926162  1
  Mo  Mo10  1  15.84233216  0.14186153  0.15146312  1
  Mo  Mo11  1  17.23332775  1.69809708  1.72134068  1
