# generated using pymatgen
data_Mo
_symmetry_space_group_name_H-M   'P 1'
_cell_length_a   28.91841060
_cell_length_b   3.16250080
_cell_length_c   3.16250080
_cell_angle_alpha   90.00000000
_cell_angle_beta   90.00000000
_cell_angle_gamma   90.00000000
_symmetry_Int_Tables_number   1
_chemical_formula_structural   Mo
_chemical_formula_sum   Mo12
_cell_volume   289.22491896
_cell_formula_units_Z   12
loop_
 _symmetry_equiv_pos_site_id
 _symmetry_equiv_pos_as_xyz
  1  'x, y, z'
loop_
 _atom_site_type_symbol
 _atom_site_label
 _atom_site_symmetry_multiplicity
 _atom_site_fract_x
 _atom_site_fract_y
 _atom_site_fract_z
 _atom_site_occupancy
  Mo  Mo0  1  0.14527476  -0.20216543  -0.09148343  1
  Mo  Mo1  1  1.59170303  1.37595716  1.44836461  1
  Mo  Mo2  1  3.17213707  -0.14779325  -0.11773224  1
  Mo  Mo3  1  4.78331868  1.51639195  1.42212363  1
  Mo  Mo4  1  6.31825560  -0.01544187  -0.12191404  1
  Mo  Mo5  1  7.88782373  1.63210506  1.50041761  1
  Mo  Mo6  1  9.47242071  0.04038793  0.02611203  1
  Mo  Mo7  1  11.07131767  1.65992563  1.68628623  1
  Mo  Mo8  1  12.66584229  0.09826938  0.13165195  1
  Mo  Mo9  1  14.19593975  1.70957304  1.71652456  1
  Mo  Mo10  1  15.83295921  0.13655905  0.16576472  1
  Mo  Mo11  1  17.22552595  1.68373277  1.72138576  1
