# generated using pymatgen
data_Mo
_symmetry_space_group_name_H-M   'P 1'
_cell_length_a   28.91841060
_cell_length_b   3.16250080
_cell_length_c   3.16250080
_cell_angle_alpha   90.00000000
_cell_angle_beta   90.00000000
_cell_angle_gamma   90.00000000
_symmetry_Int_Tables_number   1
_chemical_formula_structural   Mo
_chemical_formula_sum   Mo12
_cell_volume   289.22491896
_cell_formula_units_Z   12
loop_
 _symmetry_equiv_pos_site_id
 _symmetry_equiv_pos_as_xyz
  1  'x, y, z'
loop_
 _atom_site_type_symbol
 _atom_site_label
 _atom_site_symmetry_multiplicity
 _atom_site_fract_x
 _atom_site_fract_y
 _atom_site_fract_z
 _atom_site_occupancy
  Mo  Mo0  1  0.15151777  -0.21435805  -0.09274110  1
  Mo  Mo1  1  1.60342388  1.38308391  1.45835142  1
  Mo  Mo2  1  3.17389572  -0.14913577  -0.11552354  1
  Mo  Mo3  1  4.79428137  1.51895358  1.42688452  1
  Mo  Mo4  1  6.32138673  -0.01528345  -0.12709867  1
  Mo  Mo5  1  7.89998765  1.63902423  1.50145306  1
  Mo  Mo6  1  9.45958407  0.05380970  0.03084400  1
  Mo  Mo7  1  11.06932434  1.66665428  1.66955337  1
  Mo  Mo8  1  12.66080368  0.09003412  0.12052762  1
  Mo  Mo9  1  14.18709033  1.71418139  1.71452639  1
  Mo  Mo10  1  15.82332028  0.13053200  0.17887829  1
  Mo  Mo11  1  17.21790263  1.67000546  1.72184605  1
