# generated using pymatgen
data_Mo
_symmetry_space_group_name_H-M   'P 1'
_cell_length_a   28.91841060
_cell_length_b   3.16250080
_cell_length_c   3.16250080
_cell_angle_alpha   90.00000000
_cell_angle_beta   90.00000000
_cell_angle_gamma   90.00000000
_symmetry_Int_Tables_number   1
_chemical_formula_structural   Mo
_chemical_formula_sum   Mo12
_cell_volume   289.22491896
_cell_formula_units_Z   12
loop_
 _symmetry_equiv_pos_site_id
 _symmetry_equiv_pos_as_xyz
  1  'x, y, z'
loop_
 _atom_site_type_symbol
 _atom_site_label
 _atom_site_symmetry_multiplicity
 _atom_site_fract_x
 _atom_site_fract_y
 _atom_site_fract_z
 _atom_site_occupancy
  Mo  Mo0  1  0.17164201  -0.23723206  -0.09650185  1
  Mo  Mo1  1  1.61583071  1.40024291  1.47968598  1
  Mo  Mo2  1  3.18451801  -0.14876815  -0.11462079  1
  Mo  Mo3  1  4.80362235  1.52175996  1.44192888  1
  Mo  Mo4  1  6.33053343  -0.01367053  -0.13472099  1
  Mo  Mo5  1  7.92570603  1.64649517  1.50919264  1
  Mo  Mo6  1  9.44317764  0.08252159  0.03404894  1
  Mo  Mo7  1  11.06172456  1.67816203  1.63465997  1
  Mo  Mo8  1  12.64356250  0.07807396  0.09695545  1
  Mo  Mo9  1  14.17507847  1.71791600  1.71290285  1
  Mo  Mo10  1  15.80407295  0.11681552  0.19911362  1
  Mo  Mo11  1  17.20304979  1.64518500  1.72485672  1
