# generated using pymatgen
data_Mo
_symmetry_space_group_name_H-M   'P 1'
_cell_length_a   28.91841060
_cell_length_b   3.16250080
_cell_length_c   3.16250080
_cell_angle_alpha   90.00000000
_cell_angle_beta   90.00000000
_cell_angle_gamma   90.00000000
_symmetry_Int_Tables_number   1
_chemical_formula_structural   Mo
_chemical_formula_sum   Mo12
_cell_volume   289.22491896
_cell_formula_units_Z   12
loop_
 _symmetry_equiv_pos_site_id
 _symmetry_equiv_pos_as_xyz
  1  'x, y, z'
loop_
 _atom_site_type_symbol
 _atom_site_label
 _atom_site_symmetry_multiplicity
 _atom_site_fract_x
 _atom_site_fract_y
 _atom_site_fract_z
 _atom_site_occupancy
  Mo  Mo0  1  0.18488148  -0.24714221  -0.09861516  1
  Mo  Mo1  1  1.61692072  1.40905744  1.49007255  1
  Mo  Mo2  1  3.19350551  -0.14660267  -0.11501775  1
  Mo  Mo3  1  4.80250135  1.52197570  1.45119219  1
  Mo  Mo4  1  6.33644514  -0.01195127  -0.13604690  1
  Mo  Mo5  1  7.93626145  1.64750838  1.51554812  1
  Mo  Mo6  1  9.44200903  0.09664589  0.03138122  1
  Mo  Mo7  1  11.05606922  1.68267782  1.61785498  1
  Mo  Mo8  1  12.63160401  0.07558108  0.08501693  1
  Mo  Mo9  1  14.17167691  1.71601705  1.71309910  1
  Mo  Mo10  1  15.79483486  0.10933797  0.20529187  1
  Mo  Mo11  1  17.19580879  1.63439622  1.72772426  1
