# generated using pymatgen
data_Mo
_symmetry_space_group_name_H-M   'P 1'
_cell_length_a   23.36076090
_cell_length_b   4.47245071
_cell_length_c   3.16250080
_cell_angle_alpha   90.00000000
_cell_angle_beta   90.00000000
_cell_angle_gamma   90.00000000
_symmetry_Int_Tables_number   1
_chemical_formula_structural   Mo
_chemical_formula_sum   Mo12
_cell_volume   330.41761435
_cell_formula_units_Z   12
loop_
 _symmetry_equiv_pos_site_id
 _symmetry_equiv_pos_as_xyz
  1  'x, y, z'
loop_
 _atom_site_type_symbol
 _atom_site_label
 _atom_site_symmetry_multiplicity
 _atom_site_fract_x
 _atom_site_fract_y
 _atom_site_fract_z
 _atom_site_occupancy
  Mo  Mo0  1  0.10757324  0.01258453  0.03605350  1
  Mo  Mo1  1  2.24057391  2.22245249  -0.01268489  1
  Mo  Mo2  1  2.22108438  0.01167184  1.60448544  1
  Mo  Mo3  1  0.12638524  2.18882211  1.56794716  1
  Mo  Mo4  1  4.47308547  0.01348831  0.00578478  1
  Mo  Mo5  1  6.69813866  2.24146337  -0.01973757  1
  Mo  Mo6  1  6.71250790  -0.00277750  1.55033198  1
  Mo  Mo7  1  4.45879539  2.24795737  1.59114710  1
  Mo  Mo8  1  8.93358502  -0.01186274  0.00624650  1
  Mo  Mo9  1  11.07965614  2.25301430  -0.00766458  1
  Mo  Mo10  1  11.09243341  0.02820274  1.55773587  1
  Mo  Mo11  1  8.94295179  2.21233529  1.60785611  1
