# generated using pymatgen
data_Mo
_symmetry_space_group_name_H-M   'P 1'
_cell_length_a   23.36076090
_cell_length_b   4.47245071
_cell_length_c   3.16250080
_cell_angle_alpha   90.00000000
_cell_angle_beta   90.00000000
_cell_angle_gamma   90.00000000
_symmetry_Int_Tables_number   1
_chemical_formula_structural   Mo
_chemical_formula_sum   Mo12
_cell_volume   330.41761435
_cell_formula_units_Z   12
loop_
 _symmetry_equiv_pos_site_id
 _symmetry_equiv_pos_as_xyz
  1  'x, y, z'
loop_
 _atom_site_type_symbol
 _atom_site_label
 _atom_site_symmetry_multiplicity
 _atom_site_fract_x
 _atom_site_fract_y
 _atom_site_fract_z
 _atom_site_occupancy
  Mo  Mo0  1  0.13348040  0.01649382  0.06933791  1
  Mo  Mo1  1  2.25574191  2.21590504  -0.02105373  1
  Mo  Mo2  1  2.22205027  0.01472888  1.62474239  1
  Mo  Mo3  1  0.16893846  2.15146090  1.55818784  1
  Mo  Mo4  1  4.47291118  0.02492251  0.01118552  1
  Mo  Mo5  1  6.68737364  2.24428563  -0.03622389  1
  Mo  Mo6  1  6.71149994  -0.00470601  1.52374960  1
  Mo  Mo7  1  4.44967176  2.25985228  1.59775936  1
  Mo  Mo8  1  8.91738420  -0.02301523  0.01054765  1
  Mo  Mo9  1  11.05755543  2.26921520  -0.01487149  1
  Mo  Mo10  1  11.08005063  0.05250817  1.53600718  1
  Mo  Mo11  1  8.93011272  2.19570092  1.62813308  1
