# generated using pymatgen
data_Mo
_symmetry_space_group_name_H-M   'P 1'
_cell_length_a   23.36076090
_cell_length_b   4.47245071
_cell_length_c   3.16250080
_cell_angle_alpha   90.00000000
_cell_angle_beta   90.00000000
_cell_angle_gamma   90.00000000
_symmetry_Int_Tables_number   1
_chemical_formula_structural   Mo
_chemical_formula_sum   Mo12
_cell_volume   330.41761435
_cell_formula_units_Z   12
loop_
 _symmetry_equiv_pos_site_id
 _symmetry_equiv_pos_as_xyz
  1  'x, y, z'
loop_
 _atom_site_type_symbol
 _atom_site_label
 _atom_site_symmetry_multiplicity
 _atom_site_fract_x
 _atom_site_fract_y
 _atom_site_fract_z
 _atom_site_occupancy
  Mo  Mo0  1  0.14880320  0.00486854  0.09324588  1
  Mo  Mo1  1  2.27305572  2.22086348  -0.02031053  1
  Mo  Mo2  1  2.23807758  0.00354715  1.63730240  1
  Mo  Mo3  1  0.19354483  2.13625704  1.55690543  1
  Mo  Mo4  1  4.47239172  0.03182603  0.01504274  1
  Mo  Mo5  1  6.67714343  2.24275545  -0.04513029  1
  Mo  Mo6  1  6.70251024  -0.00501046  1.50861349  1
  Mo  Mo7  1  4.45100325  2.26977145  1.59771708  1
  Mo  Mo8  1  8.90717212  -0.03041852  0.01040829  1
  Mo  Mo9  1  11.04082893  2.28240883  -0.02059956  1
  Mo  Mo10  1  11.06729556  0.06714231  1.52004847  1
  Mo  Mo11  1  8.91494397  2.19334085  1.63425801  1
