# generated using pymatgen
data_Mo
_symmetry_space_group_name_H-M   'P 1'
_cell_length_a   23.36076090
_cell_length_b   4.47245071
_cell_length_c   3.16250080
_cell_angle_alpha   90.00000000
_cell_angle_beta   90.00000000
_cell_angle_gamma   90.00000000
_symmetry_Int_Tables_number   1
_chemical_formula_structural   Mo
_chemical_formula_sum   Mo12
_cell_volume   330.41761435
_cell_formula_units_Z   12
loop_
 _symmetry_equiv_pos_site_id
 _symmetry_equiv_pos_as_xyz
  1  'x, y, z'
loop_
 _atom_site_type_symbol
 _atom_site_label
 _atom_site_symmetry_multiplicity
 _atom_site_fract_x
 _atom_site_fract_y
 _atom_site_fract_z
 _atom_site_occupancy
  Mo  Mo0  1  0.15228995  -0.00689372  0.10059402  1
  Mo  Mo1  1  2.28189647  2.22646597  -0.01602167  1
  Mo  Mo2  1  2.25134839  -0.00629646  1.64014778  1
  Mo  Mo3  1  0.19812292  2.13774613  1.56040082  1
  Mo  Mo4  1  4.47238435  0.03344071  0.01610982  1
  Mo  Mo5  1  6.67258292  2.24042145  -0.04626425  1
  Mo  Mo6  1  6.69523792  -0.00450360  1.50643180  1
  Mo  Mo7  1  4.45609715  2.27317464  1.59495581  1
  Mo  Mo8  1  8.90419954  -0.03167477  0.00819985  1
  Mo  Mo9  1  11.03495911  2.28741292  -0.02289189  1
  Mo  Mo10  1  11.06102816  0.07021254  1.51481792  1
  Mo  Mo11  1  8.90662367  2.19784630  1.63102139  1
