# generated using pymatgen
data_Mo
_symmetry_space_group_name_H-M   'P 1'
_cell_length_a   23.36076090
_cell_length_b   4.47245071
_cell_length_c   3.16250080
_cell_angle_alpha   90.00000000
_cell_angle_beta   90.00000000
_cell_angle_gamma   90.00000000
_symmetry_Int_Tables_number   1
_chemical_formula_structural   Mo
_chemical_formula_sum   Mo12
_cell_volume   330.41761435
_cell_formula_units_Z   12
loop_
 _symmetry_equiv_pos_site_id
 _symmetry_equiv_pos_as_xyz
  1  'x, y, z'
loop_
 _atom_site_type_symbol
 _atom_site_label
 _atom_site_symmetry_multiplicity
 _atom_site_fract_x
 _atom_site_fract_y
 _atom_site_fract_z
 _atom_site_occupancy
  Mo  Mo0  1  0.15351250  -0.02180300  0.10460785  1
  Mo  Mo1  1  2.29020650  2.23260459  -0.00930338  1
  Mo  Mo2  1  2.26674817  -0.01723917  1.64070249  1
  Mo  Mo3  1  0.19791554  2.14454487  1.56685931  1
  Mo  Mo4  1  4.47285297  0.03387711  0.01646561  1
  Mo  Mo5  1  6.66876470  2.23736349  -0.04519883  1
  Mo  Mo6  1  6.68680434  -0.00358931  1.50802388  1
  Mo  Mo7  1  4.46384581  2.27503164  1.59059784  1
  Mo  Mo8  1  8.90224003  -0.03071962  0.00445313  1
  Mo  Mo9  1  11.03075932  2.29113357  -0.02489172  1
  Mo  Mo10  1  11.05497186  0.07048876  1.51157278  1
  Mo  Mo11  1  8.89814881  2.20565918  1.62361245  1
