# generated using pymatgen
data_Mo
_symmetry_space_group_name_H-M   'P 1'
_cell_length_a   23.36076090
_cell_length_b   4.47245071
_cell_length_c   3.16250080
_cell_angle_alpha   90.00000000
_cell_angle_beta   90.00000000
_cell_angle_gamma   90.00000000
_symmetry_Int_Tables_number   1
_chemical_formula_structural   Mo
_chemical_formula_sum   Mo12
_cell_volume   330.41761435
_cell_formula_units_Z   12
loop_
 _symmetry_equiv_pos_site_id
 _symmetry_equiv_pos_as_xyz
  1  'x, y, z'
loop_
 _atom_site_type_symbol
 _atom_site_label
 _atom_site_symmetry_multiplicity
 _atom_site_fract_x
 _atom_site_fract_y
 _atom_site_fract_z
 _atom_site_occupancy
  Mo  Mo0  1  0.14981354  -0.07376385  0.09784905  1
  Mo  Mo1  1  2.30670734  2.24110352  0.02074315  1
  Mo  Mo2  1  2.31041811  -0.04115297  1.63098894  1
  Mo  Mo3  1  0.17634667  2.18409119  1.60242394  1
  Mo  Mo4  1  4.47936464  0.02863299  0.01269643  1
  Mo  Mo5  1  6.66548706  2.22813716  -0.03123497  1
  Mo  Mo6  1  6.66307322  0.00096437  1.53301567  1
  Mo  Mo7  1  4.49624361  2.26840426  1.57247899  1
  Mo  Mo8  1  8.89819754  -0.01176234  -0.01548382  1
  Mo  Mo9  1  11.02624778  2.29363311  -0.03043301  1
  Mo  Mo10  1  11.03872265  0.05761363  1.51335281  1
  Mo  Mo11  1  8.87614840  2.24145106  1.58110421  1
