# generated using pymatgen
data_Mo
_symmetry_space_group_name_H-M   'P 1'
_cell_length_a   23.36076090
_cell_length_b   4.47245071
_cell_length_c   3.16250080
_cell_angle_alpha   90.00000000
_cell_angle_beta   90.00000000
_cell_angle_gamma   90.00000000
_symmetry_Int_Tables_number   1
_chemical_formula_structural   Mo
_chemical_formula_sum   Mo12
_cell_volume   330.41761435
_cell_formula_units_Z   12
loop_
 _symmetry_equiv_pos_site_id
 _symmetry_equiv_pos_as_xyz
  1  'x, y, z'
loop_
 _atom_site_type_symbol
 _atom_site_label
 _atom_site_symmetry_multiplicity
 _atom_site_fract_x
 _atom_site_fract_y
 _atom_site_fract_z
 _atom_site_occupancy
  Mo  Mo0  1  0.14397773  -0.11334554  0.06086799  1
  Mo  Mo1  1  2.29997891  2.20971638  0.06011257  1
  Mo  Mo2  1  2.32005765  -0.02831450  1.60724166  1
  Mo  Mo3  1  0.13052658  2.23010765  1.66976667  1
  Mo  Mo4  1  4.49973480  0.00611600  -0.00100279  1
  Mo  Mo5  1  6.68706983  2.23265378  -0.00523528  1
  Mo  Mo6  1  6.66460399  0.00810422  1.58927447  1
  Mo  Mo7  1  4.52596171  2.23362637  1.55882572  1
  Mo  Mo8  1  8.88962561  0.04452416  -0.05355135  1
  Mo  Mo9  1  11.02943108  2.27932061  -0.04196782  1
  Mo  Mo10  1  11.02298949  0.02710709  1.53442944  1
  Mo  Mo11  1  8.87281316  2.28773590  1.50874014  1
