# generated using pymatgen
data_Mo
_symmetry_space_group_name_H-M   'P 1'
_cell_length_a   23.36076090
_cell_length_b   4.47245071
_cell_length_c   3.16250080
_cell_angle_alpha   90.00000000
_cell_angle_beta   90.00000000
_cell_angle_gamma   90.00000000
_symmetry_Int_Tables_number   1
_chemical_formula_structural   Mo
_chemical_formula_sum   Mo12
_cell_volume   330.41761435
_cell_formula_units_Z   12
loop_
 _symmetry_equiv_pos_site_id
 _symmetry_equiv_pos_as_xyz
  1  'x, y, z'
loop_
 _atom_site_type_symbol
 _atom_site_label
 _atom_site_symmetry_multiplicity
 _atom_site_fract_x
 _atom_site_fract_y
 _atom_site_fract_z
 _atom_site_occupancy
  Mo  Mo0  1  0.14303371  -0.11233364  0.05042459  1
  Mo  Mo1  1  2.29360568  2.19771974  0.06618745  1
  Mo  Mo2  1  2.31198287  -0.02101829  1.60229649  1
  Mo  Mo3  1  0.12023415  2.23404960  1.68593331  1
  Mo  Mo4  1  4.50490086  -0.00240897  -0.00451150  1
  Mo  Mo5  1  6.69544356  2.23842159  -0.00104712  1
  Mo  Mo6  1  6.67288538  0.00976391  1.60141494  1
  Mo  Mo7  1  4.52620064  2.22336509  1.56049874  1
  Mo  Mo8  1  8.88809948  0.05951640  -0.06241543  1
  Mo  Mo9  1  11.03088731  2.27415189  -0.04619837  1
  Mo  Mo10  1  11.02070013  0.02068580  1.54069383  1
  Mo  Mo11  1  8.87879677  2.29543900  1.49422445  1
