# generated using pymatgen
data_Mo
_symmetry_space_group_name_H-M   'P 1'
_cell_length_a   23.36076090
_cell_length_b   4.47245071
_cell_length_c   3.16250080
_cell_angle_alpha   90.00000000
_cell_angle_beta   90.00000000
_cell_angle_gamma   90.00000000
_symmetry_Int_Tables_number   1
_chemical_formula_structural   Mo
_chemical_formula_sum   Mo12
_cell_volume   330.41761435
_cell_formula_units_Z   12
loop_
 _symmetry_equiv_pos_site_id
 _symmetry_equiv_pos_as_xyz
  1  'x, y, z'
loop_
 _atom_site_type_symbol
 _atom_site_label
 _atom_site_symmetry_multiplicity
 _atom_site_fract_x
 _atom_site_fract_y
 _atom_site_fract_z
 _atom_site_occupancy
  Mo  Mo0  1  0.14191249  -0.10660163  0.04072468  1
  Mo  Mo1  1  2.28585454  2.18648394  0.07015314  1
  Mo  Mo2  1  2.30086088  -0.01482698  1.59841890  1
  Mo  Mo3  1  0.11103134  2.23433825  1.70046860  1
  Mo  Mo4  1  4.50917623  -0.01186083  -0.00741880  1
  Mo  Mo5  1  6.70368763  2.24574258  0.00143389  1
  Mo  Mo6  1  6.68342036  0.01153869  1.61091855  1
  Mo  Mo7  1  4.52332484  2.21373749  1.56450811  1
  Mo  Mo8  1  8.88778868  0.07283138  -0.07001569  1
  Mo  Mo9  1  11.03275007  2.26900276  -0.05095994  1
  Mo  Mo10  1  11.01949289  0.01565027  1.54648579  1
  Mo  Mo11  1  8.88747060  2.30131620  1.48278418  1
