# generated using pymatgen
data_Mo
_symmetry_space_group_name_H-M   'P 1'
_cell_length_a   23.36076090
_cell_length_b   4.47245071
_cell_length_c   3.16250080
_cell_angle_alpha   90.00000000
_cell_angle_beta   90.00000000
_cell_angle_gamma   90.00000000
_symmetry_Int_Tables_number   1
_chemical_formula_structural   Mo
_chemical_formula_sum   Mo12
_cell_volume   330.41761435
_cell_formula_units_Z   12
loop_
 _symmetry_equiv_pos_site_id
 _symmetry_equiv_pos_as_xyz
  1  'x, y, z'
loop_
 _atom_site_type_symbol
 _atom_site_label
 _atom_site_symmetry_multiplicity
 _atom_site_fract_x
 _atom_site_fract_y
 _atom_site_fract_z
 _atom_site_occupancy
  Mo  Mo0  1  0.14028467  -0.09647670  0.03240821  1
  Mo  Mo1  1  2.27704564  2.17724424  0.07194821  1
  Mo  Mo2  1  2.28763293  -0.01109192  1.59582906  1
  Mo  Mo3  1  0.10300153  2.23111727  1.71264990  1
  Mo  Mo4  1  4.51213547  -0.02190990  -0.00940633  1
  Mo  Mo5  1  6.71110045  2.25411545  0.00208675  1
  Mo  Mo6  1  6.69523729  0.01364630  1.61704259  1
  Mo  Mo7  1  4.51773693  2.20522958  1.57065022  1
  Mo  Mo8  1  8.88922453  0.08349300  -0.07586973  1
  Mo  Mo9  1  11.03526465  2.26420457  -0.05616167  1
  Mo  Mo10  1  11.01967452  0.01230561  1.55135899  1
  Mo  Mo11  1  8.89843197  2.30547462  1.47496523  1
