# generated using pymatgen
data_Mo
_symmetry_space_group_name_H-M   'P 1'
_cell_length_a   23.36076090
_cell_length_b   4.47245071
_cell_length_c   3.16250080
_cell_angle_alpha   90.00000000
_cell_angle_beta   90.00000000
_cell_angle_gamma   90.00000000
_symmetry_Int_Tables_number   1
_chemical_formula_structural   Mo
_chemical_formula_sum   Mo12
_cell_volume   330.41761435
_cell_formula_units_Z   12
loop_
 _symmetry_equiv_pos_site_id
 _symmetry_equiv_pos_as_xyz
  1  'x, y, z'
loop_
 _atom_site_type_symbol
 _atom_site_label
 _atom_site_symmetry_multiplicity
 _atom_site_fract_x
 _atom_site_fract_y
 _atom_site_fract_z
 _atom_site_occupancy
  Mo  Mo0  1  0.12157289  -0.02823888  0.02251739  1
  Mo  Mo1  1  2.23804681  2.17347680  0.06118376  1
  Mo  Mo2  1  2.23298605  -0.03326915  1.59953706  1
  Mo  Mo3  1  0.08099609  2.19430205  1.72666321  1
  Mo  Mo4  1  4.50551849  -0.05778375  -0.00406143  1
  Mo  Mo5  1  6.72512885  2.28481913  -0.01074506  1
  Mo  Mo6  1  6.73448323  0.02960259  1.60182917  1
  Mo  Mo7  1  4.48109260  2.18579118  1.60716022  1
  Mo  Mo8  1  8.91785172  0.08846672  -0.07567324  1
  Mo  Mo9  1  11.05799006  2.25405123  -0.07797247  1
  Mo  Mo10  1  11.04008087  0.01793423  1.55471101  1
  Mo  Mo11  1  8.95102287  2.30819994  1.48235179  1
