# generated using pymatgen
data_Mo
_symmetry_space_group_name_H-M   'P 1'
_cell_length_a   23.36076090
_cell_length_b   4.47245071
_cell_length_c   3.16250080
_cell_angle_alpha   90.00000000
_cell_angle_beta   90.00000000
_cell_angle_gamma   90.00000000
_symmetry_Int_Tables_number   1
_chemical_formula_structural   Mo
_chemical_formula_sum   Mo12
_cell_volume   330.41761435
_cell_formula_units_Z   12
loop_
 _symmetry_equiv_pos_site_id
 _symmetry_equiv_pos_as_xyz
  1  'x, y, z'
loop_
 _atom_site_type_symbol
 _atom_site_label
 _atom_site_symmetry_multiplicity
 _atom_site_fract_x
 _atom_site_fract_y
 _atom_site_fract_z
 _atom_site_occupancy
  Mo  Mo0  1  0.11241451  -0.01030071  0.02685965  1
  Mo  Mo1  1  2.22907585  2.18003620  0.05590712  1
  Mo  Mo2  1  2.22282545  -0.04632223  1.60351845  1
  Mo  Mo3  1  0.07700798  2.18365726  1.72022393  1
  Mo  Mo4  1  4.49887556  -0.06281190  0.00076908  1
  Mo  Mo5  1  6.72483730  2.28873947  -0.01629578  1
  Mo  Mo6  1  6.73852262  0.03563077  1.58926820  1
  Mo  Mo7  1  4.47164234  2.18414328  1.61632944  1
  Mo  Mo8  1  8.93015097  0.08034263  -0.06964400  1
  Mo  Mo9  1  11.06805914  2.25472065  -0.08249377  1
  Mo  Mo10  1  11.05102759  0.02354186  1.55064516  1
  Mo  Mo11  1  8.96233123  2.30597480  1.49241390  1
