# generated using pymatgen
data_Mo
_symmetry_space_group_name_H-M   'P 1'
_cell_length_a   23.36076090
_cell_length_b   4.47245071
_cell_length_c   3.16250080
_cell_angle_alpha   90.00000000
_cell_angle_beta   90.00000000
_cell_angle_gamma   90.00000000
_symmetry_Int_Tables_number   1
_chemical_formula_structural   Mo
_chemical_formula_sum   Mo12
_cell_volume   330.41761435
_cell_formula_units_Z   12
loop_
 _symmetry_equiv_pos_site_id
 _symmetry_equiv_pos_as_xyz
  1  'x, y, z'
loop_
 _atom_site_type_symbol
 _atom_site_label
 _atom_site_symmetry_multiplicity
 _atom_site_fract_x
 _atom_site_fract_y
 _atom_site_fract_z
 _atom_site_occupancy
  Mo  Mo0  1  0.10125317  0.00532047  0.03364249  1
  Mo  Mo1  1  2.22099813  2.18773850  0.05055796  1
  Mo  Mo2  1  2.21493881  -0.05990680  1.60830594  1
  Mo  Mo3  1  0.07305910  2.17447758  1.71005842  1
  Mo  Mo4  1  4.49051321  -0.06535884  0.00670616  1
  Mo  Mo5  1  6.72357702  2.29042569  -0.02205429  1
  Mo  Mo6  1  6.73973516  0.04196061  1.57462072  1
  Mo  Mo7  1  4.46314775  2.18338727  1.62437319  1
  Mo  Mo8  1  8.94355680  0.06963341  -0.06186101  1
  Mo  Mo9  1  11.08001668  2.25680888  -0.08612679  1
  Mo  Mo10  1  11.06434511  0.03020795  1.54473255  1
  Mo  Mo11  1  8.97162960  2.30265739  1.50454608  1
