# generated using pymatgen
data_Mo
_symmetry_space_group_name_H-M   'P 1'
_cell_length_a   23.36076090
_cell_length_b   4.47245071
_cell_length_c   3.16250080
_cell_angle_alpha   90.00000000
_cell_angle_beta   90.00000000
_cell_angle_gamma   90.00000000
_symmetry_Int_Tables_number   1
_chemical_formula_structural   Mo
_chemical_formula_sum   Mo12
_cell_volume   330.41761435
_cell_formula_units_Z   12
loop_
 _symmetry_equiv_pos_site_id
 _symmetry_equiv_pos_as_xyz
  1  'x, y, z'
loop_
 _atom_site_type_symbol
 _atom_site_label
 _atom_site_symmetry_multiplicity
 _atom_site_fract_x
 _atom_site_fract_y
 _atom_site_fract_z
 _atom_site_occupancy
  Mo  Mo0  1  0.08825178  0.01752496  0.04241320  1
  Mo  Mo1  1  2.21396990  2.19522878  0.04559325  1
  Mo  Mo2  1  2.20930349  -0.07232435  1.61363669  1
  Mo  Mo3  1  0.06888416  2.16759302  1.69666423  1
  Mo  Mo4  1  4.48080533  -0.06524682  0.01345146  1
  Mo  Mo5  1  6.72168442  2.28986306  -0.02765749  1
  Mo  Mo6  1  6.73833973  0.04803507  1.55889124  1
  Mo  Mo7  1  4.45595444  2.18338481  1.63083936  1
  Mo  Mo8  1  8.95740639  0.05733860  -0.05291696  1
  Mo  Mo9  1  11.09367298  2.26022964  -0.08865235  1
  Mo  Mo10  1  11.07983626  0.03747882  1.53727131  1
  Mo  Mo11  1  8.97866168  2.29824654  1.51796746  1
