# generated using pymatgen
data_Mo
_symmetry_space_group_name_H-M   'P 1'
_cell_length_a   23.36076090
_cell_length_b   4.47245071
_cell_length_c   3.16250080
_cell_angle_alpha   90.00000000
_cell_angle_beta   90.00000000
_cell_angle_gamma   90.00000000
_symmetry_Int_Tables_number   1
_chemical_formula_structural   Mo
_chemical_formula_sum   Mo12
_cell_volume   330.41761435
_cell_formula_units_Z   12
loop_
 _symmetry_equiv_pos_site_id
 _symmetry_equiv_pos_as_xyz
  1  'x, y, z'
loop_
 _atom_site_type_symbol
 _atom_site_label
 _atom_site_symmetry_multiplicity
 _atom_site_fract_x
 _atom_site_fract_y
 _atom_site_fract_z
 _atom_site_occupancy
  Mo  Mo0  1  0.07374932  0.02552668  0.05259027  1
  Mo  Mo1  1  2.20802033  2.20122768  0.04137516  1
  Mo  Mo2  1  2.20562340  -0.08197699  1.61926138  1
  Mo  Mo3  1  0.06428044  2.16357806  1.68071322  1
  Mo  Mo4  1  4.47026149  -0.06250311  0.02064746  1
  Mo  Mo5  1  6.71943858  2.28724058  -0.03276830  1
  Mo  Mo6  1  6.73472725  0.05318549  1.54312626  1
  Mo  Mo7  1  4.45030463  2.18408840  1.63538077  1
  Mo  Mo8  1  8.97104313  0.04454059  -0.04347246  1
  Mo  Mo9  1  11.10869093  2.26480379  -0.08991100  1
  Mo  Mo10  1  11.09718347  0.04487341  1.52866669  1
  Mo  Mo11  1  8.98344759  2.29276754  1.53189196  1
