# generated using pymatgen
data_Mo
_symmetry_space_group_name_H-M   'P 1'
_cell_length_a   23.36076090
_cell_length_b   4.47245071
_cell_length_c   3.16250080
_cell_angle_alpha   90.00000000
_cell_angle_beta   90.00000000
_cell_angle_gamma   90.00000000
_symmetry_Int_Tables_number   1
_chemical_formula_structural   Mo
_chemical_formula_sum   Mo12
_cell_volume   330.41761435
_cell_formula_units_Z   12
loop_
 _symmetry_equiv_pos_site_id
 _symmetry_equiv_pos_as_xyz
  1  'x, y, z'
loop_
 _atom_site_type_symbol
 _atom_site_label
 _atom_site_symmetry_multiplicity
 _atom_site_fract_x
 _atom_site_fract_y
 _atom_site_fract_z
 _atom_site_occupancy
  Mo  Mo0  1  0.05823573  0.02888176  0.06352471  1
  Mo  Mo1  1  2.20305262  2.20474772  0.03813217  1
  Mo  Mo2  1  2.20335997  -0.08760661  1.62496790  1
  Mo  Mo3  1  0.05914939  2.16273674  1.66299198  1
  Mo  Mo4  1  4.45950634  -0.05735620  0.02790586  1
  Mo  Mo5  1  6.71704069  2.28290813  -0.03709455  1
  Mo  Mo6  1  6.72941553  0.05671071  1.52833814  1
  Mo  Mo7  1  4.44632511  2.18554723  1.63776564  1
  Mo  Mo8  1  8.98387127  0.03228020  -0.03418041  1
  Mo  Mo9  1  11.12462761  2.27027404  -0.08982070  1
  Mo  Mo10  1  11.11594513  0.05192697  1.51938844  1
  Mo  Mo11  1  8.98624117  2.28630143  1.54558223  1
