# generated using pymatgen
data_Mo
_symmetry_space_group_name_H-M   'P 1'
_cell_length_a   23.36076090
_cell_length_b   4.47245071
_cell_length_c   3.16250080
_cell_angle_alpha   90.00000000
_cell_angle_beta   90.00000000
_cell_angle_gamma   90.00000000
_symmetry_Int_Tables_number   1
_chemical_formula_structural   Mo
_chemical_formula_sum   Mo12
_cell_volume   330.41761435
_cell_formula_units_Z   12
loop_
 _symmetry_equiv_pos_site_id
 _symmetry_equiv_pos_as_xyz
  1  'x, y, z'
loop_
 _atom_site_type_symbol
 _atom_site_label
 _atom_site_symmetry_multiplicity
 _atom_site_fract_x
 _atom_site_fract_y
 _atom_site_fract_z
 _atom_site_occupancy
  Mo  Mo0  1  0.04232013  0.02747471  0.07457352  1
  Mo  Mo1  1  2.19885287  2.20525686  0.03594699  1
  Mo  Mo2  1  2.20182066  -0.08846809  1.63058826  1
  Mo  Mo3  1  0.05349815  2.16512249  1.64432486  1
  Mo  Mo4  1  4.44919823  -0.05021650  0.03483030  1
  Mo  Mo5  1  6.71462830  2.27731282  -0.04040209  1
  Mo  Mo6  1  6.72295753  0.05796533  1.51545254  1
  Mo  Mo7  1  4.44402216  2.18789342  1.63788283  1
  Mo  Mo8  1  8.99540798  0.02144464  -0.02562132  1
  Mo  Mo9  1  11.14097170  2.27632762  -0.08838752  1
  Mo  Mo10  1  11.13561020  0.05823260  1.50992438  1
  Mo  Mo11  1  8.98748265  2.27900623  1.55838865  1
