# generated using pymatgen
data_Mo
_symmetry_space_group_name_H-M   'P 1'
_cell_length_a   23.36076090
_cell_length_b   4.47245071
_cell_length_c   3.16250080
_cell_angle_alpha   90.00000000
_cell_angle_beta   90.00000000
_cell_angle_gamma   90.00000000
_symmetry_Int_Tables_number   1
_chemical_formula_structural   Mo
_chemical_formula_sum   Mo12
_cell_volume   330.41761435
_cell_formula_units_Z   12
loop_
 _symmetry_equiv_pos_site_id
 _symmetry_equiv_pos_as_xyz
  1  'x, y, z'
loop_
 _atom_site_type_symbol
 _atom_site_label
 _atom_site_symmetry_multiplicity
 _atom_site_fract_x
 _atom_site_fract_y
 _atom_site_fract_z
 _atom_site_occupancy
  Mo  Mo0  1  0.02665754  0.02151317  0.08510950  1
  Mo  Mo1  1  2.19514264  2.20276317  0.03477304  1
  Mo  Mo2  1  2.20026629  -0.08442003  1.63598331  1
  Mo  Mo3  1  0.04742459  2.17054291  1.62555720  1
  Mo  Mo4  1  4.43999206  -0.04163758  0.04103167  1
  Mo  Mo5  1  6.71228797  2.27092739  -0.04253062  1
  Mo  Mo6  1  6.71593402  0.05645005  1.50527209  1
  Mo  Mo7  1  4.44327670  2.19130558  1.63574835  1
  Mo  Mo8  1  9.00526380  0.01268538  -0.01826106  1
  Mo  Mo9  1  11.15718956  2.28262416  -0.08570495  1
  Mo  Mo10  1  11.15559324  0.06347243  1.50074282  1
  Mo  Mo11  1  8.98774215  2.27112548  1.56978003  1
