# generated using pymatgen
data_Mo
_symmetry_space_group_name_H-M   'P 1'
_cell_length_a   23.36076090
_cell_length_b   4.47245071
_cell_length_c   3.16250080
_cell_angle_alpha   90.00000000
_cell_angle_beta   90.00000000
_cell_angle_gamma   90.00000000
_symmetry_Int_Tables_number   1
_chemical_formula_structural   Mo
_chemical_formula_sum   Mo12
_cell_volume   330.41761435
_cell_formula_units_Z   12
loop_
 _symmetry_equiv_pos_site_id
 _symmetry_equiv_pos_as_xyz
  1  'x, y, z'
loop_
 _atom_site_type_symbol
 _atom_site_label
 _atom_site_symmetry_multiplicity
 _atom_site_fract_x
 _atom_site_fract_y
 _atom_site_fract_z
 _atom_site_occupancy
  Mo  Mo0  1  -0.00132228  -0.00178263  0.10207742  1
  Mo  Mo1  1  2.18801180  2.19143339  0.03486102  1
  Mo  Mo2  1  2.19450498  -0.06391008  1.64556168  1
  Mo  Mo3  1  0.03461670  2.18855089  1.59123845  1
  Mo  Mo4  1  4.42694527  -0.02271942  0.04985784  1
  Mo  Mo5  1  6.70814082  2.25742522  -0.04301799  1
  Mo  Mo6  1  6.70237397  0.04422378  1.49539216  1
  Mo  Mo7  1  4.44545869  2.20199131  1.62544412  1
  Mo  Mo8  1  9.01908112  0.00259238  -0.00828548  1
  Mo  Mo9  1  11.18716033  2.29462512  -0.07735379  1
  Mo  Mo10  1  11.19408969  0.07001700  1.48484961  1
  Mo  Mo11  1  8.98770947  2.25490513  1.58687638  1
