# generated using pymatgen
data_Mo
_symmetry_space_group_name_H-M   'P 1'
_cell_length_a   23.36076090
_cell_length_b   4.47245071
_cell_length_c   3.16250080
_cell_angle_alpha   90.00000000
_cell_angle_beta   90.00000000
_cell_angle_gamma   90.00000000
_symmetry_Int_Tables_number   1
_chemical_formula_structural   Mo
_chemical_formula_sum   Mo12
_cell_volume   330.41761435
_cell_formula_units_Z   12
loop_
 _symmetry_equiv_pos_site_id
 _symmetry_equiv_pos_as_xyz
  1  'x, y, z'
loop_
 _atom_site_type_symbol
 _atom_site_label
 _atom_site_symmetry_multiplicity
 _atom_site_fract_x
 _atom_site_fract_y
 _atom_site_fract_z
 _atom_site_occupancy
  Mo  Mo0  1  -0.01250961  -0.01737630  0.10725889  1
  Mo  Mo1  1  2.18411636  2.18490995  0.03572983  1
  Mo  Mo2  1  2.18945628  -0.04971584  1.64942665  1
  Mo  Mo3  1  0.02819535  2.19970555  1.57741934  1
  Mo  Mo4  1  4.42372375  -0.01363664  0.05188702  1
  Mo  Mo5  1  6.70651009  2.25087471  -0.04142162  1
  Mo  Mo6  1  6.69685703  0.03373807  1.49639452  1
  Mo  Mo7  1  4.44766072  2.20938764  1.61794369  1
  Mo  Mo8  1  9.02296159  0.00120963  -0.00590067  1
  Mo  Mo9  1  11.19995798  2.29975101  -0.07220014  1
  Mo  Mo10  1  11.21136594  0.07119083  1.47881033  1
  Mo  Mo11  1  8.98847504  2.24731348  1.59215357  1
