# generated using pymatgen
data_Mo
_symmetry_space_group_name_H-M   'P 1'
_cell_length_a   23.36076090
_cell_length_b   4.47245071
_cell_length_c   3.16250080
_cell_angle_alpha   90.00000000
_cell_angle_beta   90.00000000
_cell_angle_gamma   90.00000000
_symmetry_Int_Tables_number   1
_chemical_formula_structural   Mo
_chemical_formula_sum   Mo12
_cell_volume   330.41761435
_cell_formula_units_Z   12
loop_
 _symmetry_equiv_pos_site_id
 _symmetry_equiv_pos_as_xyz
  1  'x, y, z'
loop_
 _atom_site_type_symbol
 _atom_site_label
 _atom_site_symmetry_multiplicity
 _atom_site_fract_x
 _atom_site_fract_y
 _atom_site_fract_z
 _atom_site_occupancy
  Mo  Mo0  1  -0.02747872  -0.05094368  0.10857731  1
  Mo  Mo1  1  2.17527139  2.17692368  0.03801451  1
  Mo  Mo2  1  2.17488313  -0.02057612  1.65445511  1
  Mo  Mo3  1  0.01571878  2.22190617  1.55994919  1
  Mo  Mo4  1  4.42392877  0.00141463  0.05027443  1
  Mo  Mo5  1  6.70477247  2.23860114  -0.03495206  1
  Mo  Mo6  1  6.69051242  0.00662052  1.51037948  1
  Mo  Mo7  1  4.45220157  2.22750516  1.60056620  1
  Mo  Mo8  1  9.02541779  0.00413707  -0.00604957  1
  Mo  Mo9  1  11.21919136  2.30715603  -0.06140174  1
  Mo  Mo10  1  11.23902865  0.06957553  1.47183286  1
  Mo  Mo11  1  8.99332291  2.23503198  1.59585567  1
