# generated using pymatgen
data_Mo
_symmetry_space_group_name_H-M   'P 1'
_cell_length_a   23.36076090
_cell_length_b   4.47245071
_cell_length_c   3.16250080
_cell_angle_alpha   90.00000000
_cell_angle_beta   90.00000000
_cell_angle_gamma   90.00000000
_symmetry_Int_Tables_number   1
_chemical_formula_structural   Mo
_chemical_formula_sum   Mo12
_cell_volume   330.41761435
_cell_formula_units_Z   12
loop_
 _symmetry_equiv_pos_site_id
 _symmetry_equiv_pos_as_xyz
  1  'x, y, z'
loop_
 _atom_site_type_symbol
 _atom_site_label
 _atom_site_symmetry_multiplicity
 _atom_site_fract_x
 _atom_site_fract_y
 _atom_site_fract_z
 _atom_site_occupancy
  Mo  Mo0  1  -0.03233773  -0.07990374  0.09655887  1
  Mo  Mo1  1  2.16593402  2.18263435  0.03954140  1
  Mo  Mo2  1  2.15727994  0.00121799  1.65498848  1
  Mo  Mo3  1  0.00364698  2.23812172  1.55825569  1
  Mo  Mo4  1  4.43100775  0.01114503  0.04118647  1
  Mo  Mo5  1  6.70599835  2.22675734  -0.02484089  1
  Mo  Mo6  1  6.69229074  -0.02276590  1.53786545  1
  Mo  Mo7  1  4.45438820  2.24702176  1.58342952  1
  Mo  Mo8  1  9.02288322  0.01111798  -0.01146341  1
  Mo  Mo9  1  11.22827404  2.30980616  -0.05173586  1
  Mo  Mo10  1  11.25427309  0.06356823  1.47274199  1
  Mo  Mo11  1  9.00313194  2.22863121  1.59097371  1
