# generated using pymatgen
data_Mo
_symmetry_space_group_name_H-M   'P 1'
_cell_length_a   23.36076090
_cell_length_b   4.47245071
_cell_length_c   3.16250080
_cell_angle_alpha   90.00000000
_cell_angle_beta   90.00000000
_cell_angle_gamma   90.00000000
_symmetry_Int_Tables_number   1
_chemical_formula_structural   Mo
_chemical_formula_sum   Mo12
_cell_volume   330.41761435
_cell_formula_units_Z   12
loop_
 _symmetry_equiv_pos_site_id
 _symmetry_equiv_pos_as_xyz
  1  'x, y, z'
loop_
 _atom_site_type_symbol
 _atom_site_label
 _atom_site_symmetry_multiplicity
 _atom_site_fract_x
 _atom_site_fract_y
 _atom_site_fract_z
 _atom_site_occupancy
  Mo  Mo0  1  -0.02907576  -0.09629327  0.07269620  1
  Mo  Mo1  1  2.15827842  2.20420570  0.03900480  1
  Mo  Mo2  1  2.14234532  0.01054444  1.65024430  1
  Mo  Mo3  1  -0.00817959  2.24319525  1.57130983  1
  Mo  Mo4  1  4.44116237  0.01642284  0.02641772  1
  Mo  Mo5  1  6.71097990  2.21423133  -0.01210307  1
  Mo  Mo6  1  6.70264757  -0.04635253  1.57330517  1
  Mo  Mo7  1  4.45234495  2.26273921  1.57017002  1
  Mo  Mo8  1  9.01847008  0.01767016  -0.01993738  1
  Mo  Mo9  1  11.22666229  2.30703350  -0.04466581  1
  Mo  Mo10  1  11.25469183  0.05457402  1.48195871  1
  Mo  Mo11  1  9.01644316  2.22938147  1.57910094  1
