# generated using pymatgen
data_Mo
_symmetry_space_group_name_H-M   'P 1'
_cell_length_a   23.36076090
_cell_length_b   4.47245071
_cell_length_c   3.16250080
_cell_angle_alpha   90.00000000
_cell_angle_beta   90.00000000
_cell_angle_gamma   90.00000000
_symmetry_Int_Tables_number   1
_chemical_formula_structural   Mo
_chemical_formula_sum   Mo12
_cell_volume   330.41761435
_cell_formula_units_Z   12
loop_
 _symmetry_equiv_pos_site_id
 _symmetry_equiv_pos_as_xyz
  1  'x, y, z'
loop_
 _atom_site_type_symbol
 _atom_site_label
 _atom_site_symmetry_multiplicity
 _atom_site_fract_x
 _atom_site_fract_y
 _atom_site_fract_z
 _atom_site_occupancy
  Mo  Mo0  1  -0.02542414  -0.09812331  0.05772000  1
  Mo  Mo1  1  2.15577551  2.21932724  0.03780015  1
  Mo  Mo2  1  2.13763398  0.01087223  1.64570531  1
  Mo  Mo3  1  -0.01379828  2.24088417  1.58193096  1
  Mo  Mo4  1  4.44615595  0.01805655  0.01792207  1
  Mo  Mo5  1  6.71487257  2.20765748  -0.00511316  1
  Mo  Mo6  1  6.71052655  -0.05389188  1.59174663  1
  Mo  Mo7  1  4.44971560  2.26761343  1.56578747  1
  Mo  Mo8  1  9.01652407  0.01966578  -0.02451195  1
  Mo  Mo9  1  11.22214441  2.30354103  -0.04228617  1
  Mo  Mo10  1  11.24918609  0.04941713  1.48949415  1
  Mo  Mo11  1  9.02345825  2.23233226  1.57130595  1
