# generated using pymatgen
data_Mo
_symmetry_space_group_name_H-M   'P 1'
_cell_length_a   23.36076090
_cell_length_b   4.47245071
_cell_length_c   3.16250080
_cell_angle_alpha   90.00000000
_cell_angle_beta   90.00000000
_cell_angle_gamma   90.00000000
_symmetry_Int_Tables_number   1
_chemical_formula_structural   Mo
_chemical_formula_sum   Mo12
_cell_volume   330.41761435
_cell_formula_units_Z   12
loop_
 _symmetry_equiv_pos_site_id
 _symmetry_equiv_pos_as_xyz
  1  'x, y, z'
loop_
 _atom_site_type_symbol
 _atom_site_label
 _atom_site_symmetry_multiplicity
 _atom_site_fract_x
 _atom_site_fract_y
 _atom_site_fract_z
 _atom_site_occupancy
  Mo  Mo0  1  -0.02099328  -0.09528032  0.04169569  1
  Mo  Mo1  1  2.15439943  2.23564232  0.03599248  1
  Mo  Mo2  1  2.13538880  0.00923740  1.63965493  1
  Mo  Mo3  1  -0.01894486  2.23545334  1.59421929  1
  Mo  Mo4  1  4.45058680  0.01934358  0.00934688  1
  Mo  Mo5  1  6.71953738  2.20111506  0.00207683  1
  Mo  Mo6  1  6.71961948  -0.05799126  1.60938120  1
  Mo  Mo7  1  4.44633954  2.26997953  1.56312670  1
  Mo  Mo8  1  9.01515660  0.02046465  -0.02887150  1
  Mo  Mo9  1  11.21551064  2.29867608  -0.04064852  1
  Mo  Mo10  1  11.24009805  0.04404435  1.49872632  1
  Mo  Mo11  1  9.03007195  2.23666739  1.56280112  1
