# generated using pymatgen
data_Mo
_symmetry_space_group_name_H-M   'P 1'
_cell_length_a   23.36076090
_cell_length_b   4.47245071
_cell_length_c   3.16250080
_cell_angle_alpha   90.00000000
_cell_angle_beta   90.00000000
_cell_angle_gamma   90.00000000
_symmetry_Int_Tables_number   1
_chemical_formula_structural   Mo
_chemical_formula_sum   Mo12
_cell_volume   330.41761435
_cell_formula_units_Z   12
loop_
 _symmetry_equiv_pos_site_id
 _symmetry_equiv_pos_as_xyz
  1  'x, y, z'
loop_
 _atom_site_type_symbol
 _atom_site_label
 _atom_site_symmetry_multiplicity
 _atom_site_fract_x
 _atom_site_fract_y
 _atom_site_fract_z
 _atom_site_occupancy
  Mo  Mo0  1  -0.01111296  -0.07591912  0.00935187  1
  Mo  Mo1  1  2.15517977  2.26576779  0.03085616  1
  Mo  Mo2  1  2.13893537  0.00391414  1.62299051  1
  Mo  Mo3  1  -0.02665465  2.21705605  1.62061120  1
  Mo  Mo4  1  4.45701471  0.02119455  -0.00613769  1
  Mo  Mo5  1  6.73021195  2.18971779  0.01635809  1
  Mo  Mo6  1  6.73887520  -0.05593287  1.63860978  1
  Mo  Mo7  1  4.43926191  2.26712508  1.56312625  1
  Mo  Mo8  1  9.01473897  0.01834714  -0.03570251  1
  Mo  Mo9  1  11.19750121  2.28518288  -0.03926130  1
  Mo  Mo10  1  11.21282371  0.03321697  1.52113714  1
  Mo  Mo11  1  9.03999535  2.24768173  1.54556192  1
