# generated using pymatgen
data_Mo
_symmetry_space_group_name_H-M   'P 1'
_cell_length_a   23.36076090
_cell_length_b   4.47245071
_cell_length_c   3.16250080
_cell_angle_alpha   90.00000000
_cell_angle_beta   90.00000000
_cell_angle_gamma   90.00000000
_symmetry_Int_Tables_number   1
_chemical_formula_structural   Mo
_chemical_formula_sum   Mo12
_cell_volume   330.41761435
_cell_formula_units_Z   12
loop_
 _symmetry_equiv_pos_site_id
 _symmetry_equiv_pos_as_xyz
  1  'x, y, z'
loop_
 _atom_site_type_symbol
 _atom_site_label
 _atom_site_symmetry_multiplicity
 _atom_site_fract_x
 _atom_site_fract_y
 _atom_site_fract_z
 _atom_site_occupancy
  Mo  Mo0  1  -0.00605426  -0.06044788  -0.00558783  1
  Mo  Mo1  1  2.15715706  2.27674664  0.02769028  1
  Mo  Mo2  1  2.14454931  0.00209558  1.61252113  1
  Mo  Mo3  1  -0.02858448  2.20569832  1.63312849  1
  Mo  Mo4  1  4.45899590  0.02160259  -0.01223683  1
  Mo  Mo5  1  6.73559874  2.18592152  0.02306632  1
  Mo  Mo6  1  6.74757531  -0.05050797  1.64867378  1
  Mo  Mo7  1  4.43672934  2.26247451  1.56566837  1
  Mo  Mo8  1  9.01557663  0.01571853  -0.03759514  1
  Mo  Mo9  1  11.18708321  2.27683415  -0.03928590  1
  Mo  Mo10  1  11.19584736  0.02801135  1.53362090  1
  Mo  Mo11  1  9.04229646  2.25320480  1.53783785  1
