# generated using pymatgen
data_Mo
_symmetry_space_group_name_H-M   'P 1'
_cell_length_a   23.36076090
_cell_length_b   4.47245071
_cell_length_c   3.16250080
_cell_angle_alpha   90.00000000
_cell_angle_beta   90.00000000
_cell_angle_gamma   90.00000000
_symmetry_Int_Tables_number   1
_chemical_formula_structural   Mo
_chemical_formula_sum   Mo12
_cell_volume   330.41761435
_cell_formula_units_Z   12
loop_
 _symmetry_equiv_pos_site_id
 _symmetry_equiv_pos_as_xyz
  1  'x, y, z'
loop_
 _atom_site_type_symbol
 _atom_site_label
 _atom_site_symmetry_multiplicity
 _atom_site_fract_x
 _atom_site_fract_y
 _atom_site_fract_z
 _atom_site_occupancy
  Mo  Mo0  1  0.00413062  -0.02274632  -0.02976233  1
  Mo  Mo1  1  2.16342205  2.28574975  0.02053664  1
  Mo  Mo2  1  2.16181065  0.00331637  1.58840116  1
  Mo  Mo3  1  -0.02716702  2.18408707  1.65285935  1
  Mo  Mo4  1  4.46138343  0.02035147  -0.01960015  1
  Mo  Mo5  1  6.74471415  2.18490122  0.03446772  1
  Mo  Mo6  1  6.75960028  -0.03405316  1.65720546  1
  Mo  Mo7  1  4.43646879  2.24942633  1.57482405  1
  Mo  Mo8  1  9.01771839  0.00885447  -0.03716577  1
  Mo  Mo9  1  11.16593888  2.25800149  -0.04003656  1
  Mo  Mo10  1  11.15926542  0.01841394  1.55906036  1
  Mo  Mo11  1  9.03948491  2.26104952  1.52671147  1
