# generated using pymatgen
data_Mo
_symmetry_space_group_name_H-M   'P 1'
_cell_length_a   4.47266654
_cell_length_b   4.47266654
_cell_length_c   27.90077748
_cell_angle_alpha   90.00000000
_cell_angle_beta   90.00000000
_cell_angle_gamma   60.00000001
_symmetry_Int_Tables_number   1
_chemical_formula_structural   Mo
_chemical_formula_sum   Mo12
_cell_volume   483.37031866
_cell_formula_units_Z   12
loop_
 _symmetry_equiv_pos_site_id
 _symmetry_equiv_pos_as_xyz
  1  'x, y, z'
loop_
 _atom_site_type_symbol
 _atom_site_label
 _atom_site_symmetry_multiplicity
 _atom_site_fract_x
 _atom_site_fract_y
 _atom_site_fract_z
 _atom_site_occupancy
  Mo  Mo0  1  2.22539834  1.21157816  8.79814091  1
  Mo  Mo1  1  0.01657532  2.46497870  9.87361816  1
  Mo  Mo2  1  0.11018390  -0.08509671  10.53524849  1
  Mo  Mo3  1  2.38828558  1.31436789  11.59227974  1
  Mo  Mo4  1  0.08657462  2.58738240  12.61881051  1
  Mo  Mo5  1  -0.02643798  -0.07029691  13.62421073  1
  Mo  Mo6  1  2.28866373  1.22070558  14.42674082  1
  Mo  Mo7  1  -0.06222999  2.62084149  15.38055257  1
  Mo  Mo8  1  -0.04701799  0.11615860  16.30409855  1
  Mo  Mo9  1  2.10385570  1.40299258  17.37155772  1
  Mo  Mo10  1  -0.03440205  2.66620602  18.05370028  1
  Mo  Mo11  1  -0.10411606  0.04395361  18.82570641  1
