# generated using pymatgen
data_Mo
_symmetry_space_group_name_H-M   'P 1'
_cell_length_a   4.47266654
_cell_length_b   4.47266654
_cell_length_c   27.90077748
_cell_angle_alpha   90.00000000
_cell_angle_beta   90.00000000
_cell_angle_gamma   60.00000001
_symmetry_Int_Tables_number   1
_chemical_formula_structural   Mo
_chemical_formula_sum   Mo12
_cell_volume   483.37031866
_cell_formula_units_Z   12
loop_
 _symmetry_equiv_pos_site_id
 _symmetry_equiv_pos_as_xyz
  1  'x, y, z'
loop_
 _atom_site_type_symbol
 _atom_site_label
 _atom_site_symmetry_multiplicity
 _atom_site_fract_x
 _atom_site_fract_y
 _atom_site_fract_z
 _atom_site_occupancy
  Mo  Mo0  1  2.42327988  1.08130012  9.13953638  1
  Mo  Mo1  1  -0.00403689  2.35502468  9.83878784  1
  Mo  Mo2  1  0.08388498  -0.20224368  10.70953822  1
  Mo  Mo3  1  2.26315091  1.13620508  11.71641754  1
  Mo  Mo4  1  -0.00299281  2.61531338  12.54120182  1
  Mo  Mo5  1  -0.04897367  0.03949275  13.44380820  1
  Mo  Mo6  1  2.24796446  1.39889905  14.32729988  1
  Mo  Mo7  1  -0.02404757  2.75171937  15.27509513  1
  Mo  Mo8  1  0.02747283  0.10548394  16.15034277  1
  Mo  Mo9  1  2.14045399  1.37894904  17.18624808  1
  Mo  Mo10  1  -0.02207342  2.72931703  18.04372385  1
  Mo  Mo11  1  -0.13874957  0.10431064  19.03266516  1
