# generated using pymatgen
data_Mo
_symmetry_space_group_name_H-M   'P 1'
_cell_length_a   4.47266654
_cell_length_b   4.47266654
_cell_length_c   27.90077748
_cell_angle_alpha   90.00000000
_cell_angle_beta   90.00000000
_cell_angle_gamma   60.00000001
_symmetry_Int_Tables_number   1
_chemical_formula_structural   Mo
_chemical_formula_sum   Mo12
_cell_volume   483.37031866
_cell_formula_units_Z   12
loop_
 _symmetry_equiv_pos_site_id
 _symmetry_equiv_pos_as_xyz
  1  'x, y, z'
loop_
 _atom_site_type_symbol
 _atom_site_label
 _atom_site_symmetry_multiplicity
 _atom_site_fract_x
 _atom_site_fract_y
 _atom_site_fract_z
 _atom_site_occupancy
  Mo  Mo0  1  2.23234231  1.10718977  8.85774358  1
  Mo  Mo1  1  -0.01182513  2.58897896  9.92348923  1
  Mo  Mo2  1  0.07501935  0.04638975  10.62381737  1
  Mo  Mo3  1  2.25004624  1.10710742  11.66484868  1
  Mo  Mo4  1  0.06415617  2.53058002  12.64903295  1
  Mo  Mo5  1  0.10210216  -0.10224344  13.49507654  1
  Mo  Mo6  1  2.18128680  1.27380337  14.55557146  1
  Mo  Mo7  1  -0.08697694  2.58285866  15.36961670  1
  Mo  Mo8  1  -0.06333055  -0.00080541  16.21577581  1
  Mo  Mo9  1  2.16841575  1.41999042  17.31615200  1
  Mo  Mo10  1  0.00059433  2.79925452  17.90469034  1
  Mo  Mo11  1  0.03350264  0.14066739  18.82885021  1
