# generated using pymatgen
data_Mo
_symmetry_space_group_name_H-M   'P 1'
_cell_length_a   4.47266654
_cell_length_b   4.47266654
_cell_length_c   27.90077748
_cell_angle_alpha   90.00000000
_cell_angle_beta   90.00000000
_cell_angle_gamma   60.00000001
_symmetry_Int_Tables_number   1
_chemical_formula_structural   Mo
_chemical_formula_sum   Mo12
_cell_volume   483.37031866
_cell_formula_units_Z   12
loop_
 _symmetry_equiv_pos_site_id
 _symmetry_equiv_pos_as_xyz
  1  'x, y, z'
loop_
 _atom_site_type_symbol
 _atom_site_label
 _atom_site_symmetry_multiplicity
 _atom_site_fract_x
 _atom_site_fract_y
 _atom_site_fract_z
 _atom_site_occupancy
  Mo  Mo0  1  2.21196967  1.46838381  9.03619735  1
  Mo  Mo1  1  0.02188879  2.54695544  9.88014254  1
  Mo  Mo2  1  -0.01992794  -0.01845645  10.52947718  1
  Mo  Mo3  1  2.13920348  1.25432772  11.54380590  1
  Mo  Mo4  1  -0.07496611  2.65457529  12.45093688  1
  Mo  Mo5  1  0.02667252  -0.03960004  13.47320937  1
  Mo  Mo6  1  2.21991404  1.24203886  14.27883398  1
  Mo  Mo7  1  0.12598528  2.55174163  15.35284165  1
  Mo  Mo8  1  0.07586294  0.01256483  16.37375672  1
  Mo  Mo9  1  2.31015200  1.25283592  17.26664899  1
  Mo  Mo10  1  -0.03000948  2.56651019  18.20450322  1
  Mo  Mo11  1  -0.06141210  0.00189421  19.01431108  1
