# generated using pymatgen
data_Mo
_symmetry_space_group_name_H-M   'P 1'
_cell_length_a   4.47266654
_cell_length_b   4.47266654
_cell_length_c   27.90077748
_cell_angle_alpha   90.00000000
_cell_angle_beta   90.00000000
_cell_angle_gamma   60.00000001
_symmetry_Int_Tables_number   1
_chemical_formula_structural   Mo
_chemical_formula_sum   Mo12
_cell_volume   483.37031866
_cell_formula_units_Z   12
loop_
 _symmetry_equiv_pos_site_id
 _symmetry_equiv_pos_as_xyz
  1  'x, y, z'
loop_
 _atom_site_type_symbol
 _atom_site_label
 _atom_site_symmetry_multiplicity
 _atom_site_fract_x
 _atom_site_fract_y
 _atom_site_fract_z
 _atom_site_occupancy
  Mo  Mo0  1  2.22390433  1.31185559  8.82809693  1
  Mo  Mo1  1  -0.06482780  2.65172953  9.74780467  1
  Mo  Mo2  1  -0.11778894  0.16400143  10.66387477  1
  Mo  Mo3  1  2.29101763  1.48846442  11.71711625  1
  Mo  Mo4  1  0.05869773  2.66112761  12.63381450  1
  Mo  Mo5  1  -0.00885523  0.04779608  13.51747592  1
  Mo  Mo6  1  2.20485169  1.30454985  14.54842238  1
  Mo  Mo7  1  0.00675004  2.55345022  15.30373328  1
  Mo  Mo8  1  -0.07647946  -0.01270722  16.23169062  1
  Mo  Mo9  1  2.27371225  1.14421522  17.35260646  1
  Mo  Mo10  1  0.03720154  2.38083860  17.97061598  1
  Mo  Mo11  1  0.11714932  -0.20154994  18.88941313  1
