# generated using pymatgen
data_Mo
_symmetry_space_group_name_H-M   'P 1'
_cell_length_a   4.47266654
_cell_length_b   4.47266654
_cell_length_c   27.90077748
_cell_angle_alpha   90.00000000
_cell_angle_beta   90.00000000
_cell_angle_gamma   60.00000001
_symmetry_Int_Tables_number   1
_chemical_formula_structural   Mo
_chemical_formula_sum   Mo12
_cell_volume   483.37031866
_cell_formula_units_Z   12
loop_
 _symmetry_equiv_pos_site_id
 _symmetry_equiv_pos_as_xyz
  1  'x, y, z'
loop_
 _atom_site_type_symbol
 _atom_site_label
 _atom_site_symmetry_multiplicity
 _atom_site_fract_x
 _atom_site_fract_y
 _atom_site_fract_z
 _atom_site_occupancy
  Mo  Mo0  1  2.22891313  1.48434532  9.10889622  1
  Mo  Mo1  1  0.01855298  2.76153060  9.96964533  1
  Mo  Mo2  1  -0.00796862  0.10529681  10.61402092  1
  Mo  Mo3  1  2.25644349  1.38391575  11.67970591  1
  Mo  Mo4  1  -0.05927174  2.52809300  12.64189631  1
  Mo  Mo5  1  -0.08117460  0.08946764  13.39276380  1
  Mo  Mo6  1  2.25516330  1.32989930  14.33197373  1
  Mo  Mo7  1  0.05511108  2.45941521  15.30177804  1
  Mo  Mo8  1  0.00236065  -0.14574815  16.17737843  1
  Mo  Mo9  1  2.31010590  1.18474084  17.19931675  1
  Mo  Mo10  1  0.00890202  2.44297188  18.00036324  1
  Mo  Mo11  1  -0.04180449  -0.13015677  18.98692619  1
