# generated using pymatgen
data_Mo
_symmetry_space_group_name_H-M   'P 1'
_cell_length_a   4.47266654
_cell_length_b   4.47266654
_cell_length_c   27.90077748
_cell_angle_alpha   90.00000000
_cell_angle_beta   90.00000000
_cell_angle_gamma   60.00000001
_symmetry_Int_Tables_number   1
_chemical_formula_structural   Mo
_chemical_formula_sum   Mo12
_cell_volume   483.37031866
_cell_formula_units_Z   12
loop_
 _symmetry_equiv_pos_site_id
 _symmetry_equiv_pos_as_xyz
  1  'x, y, z'
loop_
 _atom_site_type_symbol
 _atom_site_label
 _atom_site_symmetry_multiplicity
 _atom_site_fract_x
 _atom_site_fract_y
 _atom_site_fract_z
 _atom_site_occupancy
  Mo  Mo0  1  2.43255497  1.45210872  8.88126557  1
  Mo  Mo1  1  -0.02395724  2.69289516  9.96579265  1
  Mo  Mo2  1  -0.08199343  0.12872274  10.53932620  1
  Mo  Mo3  1  2.16025870  1.32850917  11.49411489  1
  Mo  Mo4  1  -0.06364008  2.70962924  12.59058611  1
  Mo  Mo5  1  -0.06253611  -0.03432200  13.42652831  1
  Mo  Mo6  1  2.19032714  1.22340870  14.31320190  1
  Mo  Mo7  1  0.02356274  2.51016159  15.35857222  1
  Mo  Mo8  1  0.05177416  -0.00008442  16.33897197  1
  Mo  Mo9  1  2.23367618  1.24116526  17.35407620  1
  Mo  Mo10  1  0.04376550  2.39682466  18.08422222  1
  Mo  Mo11  1  0.04154058  -0.15524740  19.05800664  1
