# generated using pymatgen
data_Mo
_symmetry_space_group_name_H-M   'P 1'
_cell_length_a   4.47266654
_cell_length_b   4.47266654
_cell_length_c   27.90077748
_cell_angle_alpha   90.00000000
_cell_angle_beta   90.00000000
_cell_angle_gamma   60.00000001
_symmetry_Int_Tables_number   1
_chemical_formula_structural   Mo
_chemical_formula_sum   Mo12
_cell_volume   483.37031866
_cell_formula_units_Z   12
loop_
 _symmetry_equiv_pos_site_id
 _symmetry_equiv_pos_as_xyz
  1  'x, y, z'
loop_
 _atom_site_type_symbol
 _atom_site_label
 _atom_site_symmetry_multiplicity
 _atom_site_fract_x
 _atom_site_fract_y
 _atom_site_fract_z
 _atom_site_occupancy
  Mo  Mo0  1  2.04141136  1.46948635  8.97751281  1
  Mo  Mo1  1  -0.06553875  2.65348313  9.70002322  1
  Mo  Mo2  1  0.05549883  0.09002733  10.58710883  1
  Mo  Mo3  1  2.30025540  1.31566395  11.66542144  1
  Mo  Mo4  1  0.02783294  2.67073872  12.54885368  1
  Mo  Mo5  1  0.05343683  -0.11608074  13.54098024  1
  Mo  Mo6  1  2.31364567  1.18843526  14.53754329  1
  Mo  Mo7  1  0.02077128  2.43346483  15.32578596  1
  Mo  Mo8  1  0.00242373  -0.06624947  16.28416767  1
  Mo  Mo9  1  2.20096217  1.23598280  17.25444827  1
  Mo  Mo10  1  0.02539021  2.58120075  18.09317188  1
  Mo  Mo11  1  -0.03075656  0.03761850  18.88964756  1
