# generated using pymatgen
data_Mo
_symmetry_space_group_name_H-M   'P 1'
_cell_length_a   4.47266654
_cell_length_b   4.47266654
_cell_length_c   27.90077748
_cell_angle_alpha   90.00000000
_cell_angle_beta   90.00000000
_cell_angle_gamma   60.00000001
_symmetry_Int_Tables_number   1
_chemical_formula_structural   Mo
_chemical_formula_sum   Mo12
_cell_volume   483.37031866
_cell_formula_units_Z   12
loop_
 _symmetry_equiv_pos_site_id
 _symmetry_equiv_pos_as_xyz
  1  'x, y, z'
loop_
 _atom_site_type_symbol
 _atom_site_label
 _atom_site_symmetry_multiplicity
 _atom_site_fract_x
 _atom_site_fract_y
 _atom_site_fract_z
 _atom_site_occupancy
  Mo  Mo0  1  2.31958990  1.17955906  9.03521284  1
  Mo  Mo1  1  0.01931738  2.54573802  10.00867053  1
  Mo  Mo2  1  -0.07825591  0.00117427  10.72594456  1
  Mo  Mo3  1  2.17464960  1.27709007  11.63338557  1
  Mo  Mo4  1  -0.01156739  2.50440670  12.62265989  1
  Mo  Mo5  1  0.04144380  0.03157159  13.44687196  1
  Mo  Mo6  1  2.26759987  1.45760269  14.34433105  1
  Mo  Mo7  1  -0.02347139  2.67524520  15.24776093  1
  Mo  Mo8  1  -0.00685459  0.01095793  16.15381393  1
  Mo  Mo9  1  2.25511841  1.24192062  17.26292897  1
  Mo  Mo10  1  0.02557602  2.65937170  17.98771284  1
  Mo  Mo11  1  -0.03781257  -0.09086641  18.93537179  1
