# generated using pymatgen
data_Mo
_symmetry_space_group_name_H-M   'P 1'
_cell_length_a   4.47266654
_cell_length_b   4.47266654
_cell_length_c   27.90077748
_cell_angle_alpha   90.00000000
_cell_angle_beta   90.00000000
_cell_angle_gamma   60.00000001
_symmetry_Int_Tables_number   1
_chemical_formula_structural   Mo
_chemical_formula_sum   Mo12
_cell_volume   483.37031866
_cell_formula_units_Z   12
loop_
 _symmetry_equiv_pos_site_id
 _symmetry_equiv_pos_as_xyz
  1  'x, y, z'
loop_
 _atom_site_type_symbol
 _atom_site_label
 _atom_site_symmetry_multiplicity
 _atom_site_fract_x
 _atom_site_fract_y
 _atom_site_fract_z
 _atom_site_occupancy
  Mo  Mo0  1  2.28582474  1.14098564  8.99988459  1
  Mo  Mo1  1  0.12372180  2.46469526  9.84963625  1
  Mo  Mo2  1  0.06726103  -0.11773335  10.51526652  1
  Mo  Mo3  1  2.26378014  1.34864012  11.72256156  1
  Mo  Mo4  1  -0.00110643  2.55559254  12.62177037  1
  Mo  Mo5  1  -0.08590186  0.08462229  13.55268341  1
  Mo  Mo6  1  2.12083763  1.29173352  14.41836882  1
  Mo  Mo7  1  -0.05173801  2.59146217  15.39583424  1
  Mo  Mo8  1  -0.01317143  0.05708903  16.27580400  1
  Mo  Mo9  1  2.22285235  1.33688574  17.24121013  1
  Mo  Mo10  1  -0.01836587  2.72325614  17.96335254  1
  Mo  Mo11  1  0.03133903  0.01654230  18.84829244  1
