# generated using pymatgen
data_Mo
_symmetry_space_group_name_H-M   'P 1'
_cell_length_a   4.47266654
_cell_length_b   4.47266654
_cell_length_c   27.90077748
_cell_angle_alpha   90.00000000
_cell_angle_beta   90.00000000
_cell_angle_gamma   60.00000001
_symmetry_Int_Tables_number   1
_chemical_formula_structural   Mo
_chemical_formula_sum   Mo12
_cell_volume   483.37031866
_cell_formula_units_Z   12
loop_
 _symmetry_equiv_pos_site_id
 _symmetry_equiv_pos_as_xyz
  1  'x, y, z'
loop_
 _atom_site_type_symbol
 _atom_site_label
 _atom_site_symmetry_multiplicity
 _atom_site_fract_x
 _atom_site_fract_y
 _atom_site_fract_z
 _atom_site_occupancy
  Mo  Mo0  1  2.25371106  1.35161555  8.90178038  1
  Mo  Mo1  1  0.02339945  2.62527050  9.80362523  1
  Mo  Mo2  1  0.00112788  -0.11744590  10.66140987  1
  Mo  Mo3  1  2.29817455  1.26646586  11.58333665  1
  Mo  Mo4  1  0.09339302  2.45046337  12.44392910  1
  Mo  Mo5  1  0.04851742  -0.01836588  13.38901912  1
  Mo  Mo6  1  2.29577578  1.12472320  14.39532481  1
  Mo  Mo7  1  0.04738382  2.56097909  15.37121407  1
  Mo  Mo8  1  -0.04331219  0.11073302  16.29451208  1
  Mo  Mo9  1  2.14221078  1.32307718  17.36936326  1
  Mo  Mo10  1  -0.13051347  2.62345682  18.15008104  1
  Mo  Mo11  1  -0.08453498  0.19279862  19.04106928  1
