# generated using pymatgen
data_Mo
_symmetry_space_group_name_H-M   'P 1'
_cell_length_a   4.47266654
_cell_length_b   4.47266654
_cell_length_c   27.90077748
_cell_angle_alpha   90.00000000
_cell_angle_beta   90.00000000
_cell_angle_gamma   60.00000001
_symmetry_Int_Tables_number   1
_chemical_formula_structural   Mo
_chemical_formula_sum   Mo12
_cell_volume   483.37031866
_cell_formula_units_Z   12
loop_
 _symmetry_equiv_pos_site_id
 _symmetry_equiv_pos_as_xyz
  1  'x, y, z'
loop_
 _atom_site_type_symbol
 _atom_site_label
 _atom_site_symmetry_multiplicity
 _atom_site_fract_x
 _atom_site_fract_y
 _atom_site_fract_z
 _atom_site_occupancy
  Mo  Mo0  1  2.30916709  1.39622404  9.13312635  1
  Mo  Mo1  1  0.06935791  2.58225223  9.88916806  1
  Mo  Mo2  1  0.12665449  0.05455359  10.68527447  1
  Mo  Mo3  1  2.26669474  1.35394013  11.64291958  1
  Mo  Mo4  1  -0.06984128  2.73796901  12.61887846  1
  Mo  Mo5  1  -0.03533469  0.05395737  13.54615597  1
  Mo  Mo6  1  2.14155585  1.42099666  14.32450539  1
  Mo  Mo7  1  -0.07347953  2.56243187  15.27025037  1
  Mo  Mo8  1  -0.06322100  -0.17443377  16.18554185  1
  Mo  Mo9  1  2.18104271  1.22955623  17.21826361  1
  Mo  Mo10  1  0.00595563  2.44792908  18.06164817  1
  Mo  Mo11  1  0.08678120  -0.17160505  18.82893261  1
