# generated using pymatgen
data_Mo
_symmetry_space_group_name_H-M   'P 1'
_cell_length_a   4.47266654
_cell_length_b   4.47266654
_cell_length_c   27.90077748
_cell_angle_alpha   90.00000000
_cell_angle_beta   90.00000000
_cell_angle_gamma   60.00000001
_symmetry_Int_Tables_number   1
_chemical_formula_structural   Mo
_chemical_formula_sum   Mo12
_cell_volume   483.37031866
_cell_formula_units_Z   12
loop_
 _symmetry_equiv_pos_site_id
 _symmetry_equiv_pos_as_xyz
  1  'x, y, z'
loop_
 _atom_site_type_symbol
 _atom_site_label
 _atom_site_symmetry_multiplicity
 _atom_site_fract_x
 _atom_site_fract_y
 _atom_site_fract_z
 _atom_site_occupancy
  Mo  Mo0  1  2.36455439  1.50687985  8.97391362  1
  Mo  Mo1  1  0.00665846  2.73452364  9.95983430  1
  Mo  Mo2  1  -0.01844758  0.24969391  10.58644626  1
  Mo  Mo3  1  2.21014390  1.35778086  11.80857000  1
  Mo  Mo4  1  0.01017086  2.59180839  12.60084062  1
  Mo  Mo5  1  -0.03743161  -0.19914286  13.43761119  1
  Mo  Mo6  1  2.23368602  1.15745134  14.47052597  1
  Mo  Mo7  1  0.08706953  2.54694134  15.31051976  1
  Mo  Mo8  1  0.04206687  -0.02675905  16.22825137  1
  Mo  Mo9  1  2.20930076  1.15630390  17.23638909  1
  Mo  Mo10  1  -0.03063780  2.55151333  17.92491703  1
  Mo  Mo11  1  -0.13180069  -0.13322326  18.86684567  1
