# generated using pymatgen
data_Mo
_symmetry_space_group_name_H-M   'P 1'
_cell_length_a   4.47266654
_cell_length_b   4.47266654
_cell_length_c   27.90077748
_cell_angle_alpha   90.00000000
_cell_angle_beta   90.00000000
_cell_angle_gamma   60.00000001
_symmetry_Int_Tables_number   1
_chemical_formula_structural   Mo
_chemical_formula_sum   Mo12
_cell_volume   483.37031866
_cell_formula_units_Z   12
loop_
 _symmetry_equiv_pos_site_id
 _symmetry_equiv_pos_as_xyz
  1  'x, y, z'
loop_
 _atom_site_type_symbol
 _atom_site_label
 _atom_site_symmetry_multiplicity
 _atom_site_fract_x
 _atom_site_fract_y
 _atom_site_fract_z
 _atom_site_occupancy
  Mo  Mo0  1  2.43796400  1.28865018  8.92953285  1
  Mo  Mo1  1  0.17056956  2.72090892  9.72898201  1
  Mo  Mo2  1  0.21196461  0.17833826  10.40703108  1
  Mo  Mo3  1  2.23197795  1.35134463  11.54062328  1
  Mo  Mo4  1  -0.03895367  2.66365303  12.61715338  1
  Mo  Mo5  1  0.03132468  0.15434531  13.58950553  1
  Mo  Mo6  1  2.24880178  1.33582494  14.45914291  1
  Mo  Mo7  1  -0.00959039  2.57252893  15.38678114  1
  Mo  Mo8  1  -0.02511006  -0.05178504  16.33716128  1
  Mo  Mo9  1  2.07482383  1.24036615  17.33644938  1
  Mo  Mo10  1  -0.18349719  2.35260637  18.09937079  1
  Mo  Mo11  1  -0.20494200  -0.31301027  18.97293127  1
