# generated using pymatgen
data_Mo
_symmetry_space_group_name_H-M   'P 1'
_cell_length_a   4.47266654
_cell_length_b   4.47266654
_cell_length_c   27.90077748
_cell_angle_alpha   90.00000000
_cell_angle_beta   90.00000000
_cell_angle_gamma   60.00000001
_symmetry_Int_Tables_number   1
_chemical_formula_structural   Mo
_chemical_formula_sum   Mo12
_cell_volume   483.37031866
_cell_formula_units_Z   12
loop_
 _symmetry_equiv_pos_site_id
 _symmetry_equiv_pos_as_xyz
  1  'x, y, z'
loop_
 _atom_site_type_symbol
 _atom_site_label
 _atom_site_symmetry_multiplicity
 _atom_site_fract_x
 _atom_site_fract_y
 _atom_site_fract_z
 _atom_site_occupancy
  Mo  Mo0  1  2.25745020  1.15798730  9.11094940  1
  Mo  Mo1  1  0.01079320  2.46435592  9.86693658  1
  Mo  Mo2  1  0.00680992  -0.12481342  10.62135508  1
  Mo  Mo3  1  2.23311008  1.29977178  11.78166550  1
  Mo  Mo4  1  -0.07958500  2.46487048  12.60575235  1
  Mo  Mo5  1  -0.05266804  -0.10641362  13.48655577  1
  Mo  Mo6  1  2.24500938  1.21405824  14.40069340  1
  Mo  Mo7  1  0.03427456  2.62707543  15.38024832  1
  Mo  Mo8  1  0.00708194  0.06545804  16.24423812  1
  Mo  Mo9  1  2.26991394  1.47912220  17.16667100  1
  Mo  Mo10  1  0.00035211  2.76789556  17.98479070  1
  Mo  Mo11  1  0.01279084  0.18440348  18.75480865  1
