# generated using pymatgen
data_Mo
_symmetry_space_group_name_H-M   'P 1'
_cell_length_a   4.47266654
_cell_length_b   4.47266654
_cell_length_c   27.90077748
_cell_angle_alpha   90.00000000
_cell_angle_beta   90.00000000
_cell_angle_gamma   60.00000001
_symmetry_Int_Tables_number   1
_chemical_formula_structural   Mo
_chemical_formula_sum   Mo12
_cell_volume   483.37031866
_cell_formula_units_Z   12
loop_
 _symmetry_equiv_pos_site_id
 _symmetry_equiv_pos_as_xyz
  1  'x, y, z'
loop_
 _atom_site_type_symbol
 _atom_site_label
 _atom_site_symmetry_multiplicity
 _atom_site_fract_x
 _atom_site_fract_y
 _atom_site_fract_z
 _atom_site_occupancy
  Mo  Mo0  1  2.05437234  1.20197289  8.91904221  1
  Mo  Mo1  1  -0.02420312  2.53030866  9.86954440  1
  Mo  Mo2  1  -0.05025065  -0.03060108  10.60769160  1
  Mo  Mo3  1  2.20918305  1.09559830  11.54388138  1
  Mo  Mo4  1  -0.04152206  2.58281252  12.57305951  1
  Mo  Mo5  1  -0.00283025  -0.11402575  13.55470750  1
  Mo  Mo6  1  2.20412857  1.24568739  14.44333657  1
  Mo  Mo7  1  -0.06053824  2.57421603  15.36475251  1
  Mo  Mo8  1  -0.03635678  -0.00050137  16.22389856  1
  Mo  Mo9  1  2.33080995  1.41765015  17.36786783  1
  Mo  Mo10  1  0.12024102  2.77214293  17.98252746  1
  Mo  Mo11  1  0.24229928  0.21851076  18.95435534  1
