# generated using pymatgen
data_Mo
_symmetry_space_group_name_H-M   'P 1'
_cell_length_a   4.47266654
_cell_length_b   4.47266654
_cell_length_c   27.90077748
_cell_angle_alpha   90.00000000
_cell_angle_beta   90.00000000
_cell_angle_gamma   60.00000001
_symmetry_Int_Tables_number   1
_chemical_formula_structural   Mo
_chemical_formula_sum   Mo12
_cell_volume   483.37031866
_cell_formula_units_Z   12
loop_
 _symmetry_equiv_pos_site_id
 _symmetry_equiv_pos_as_xyz
  1  'x, y, z'
loop_
 _atom_site_type_symbol
 _atom_site_label
 _atom_site_symmetry_multiplicity
 _atom_site_fract_x
 _atom_site_fract_y
 _atom_site_fract_z
 _atom_site_occupancy
  Mo  Mo0  1  2.14059630  1.28378425  8.96233303  1
  Mo  Mo1  1  -0.12158149  2.57449856  9.69631937  1
  Mo  Mo2  1  -0.20535165  0.01430615  10.54779867  1
  Mo  Mo3  1  2.16800991  1.21668902  11.64154348  1
  Mo  Mo4  1  -0.04368573  2.64243382  12.50137423  1
  Mo  Mo5  1  -0.03468950  0.03900373  13.44712261  1
  Mo  Mo6  1  2.27399469  1.34733657  14.34846295  1
  Mo  Mo7  1  0.17688235  2.55990743  15.42553142  1
  Mo  Mo8  1  0.15897429  0.01542119  16.34556996  1
  Mo  Mo9  1  2.33668052  1.25989355  17.27970963  1
  Mo  Mo10  1  0.08558521  2.60676985  18.15442443  1
  Mo  Mo11  1  0.00991822  -0.06627271  19.05447508  1
