# generated using pymatgen
data_Mo
_symmetry_space_group_name_H-M   'P 1'
_cell_length_a   4.47266654
_cell_length_b   4.47266654
_cell_length_c   27.90077748
_cell_angle_alpha   90.00000000
_cell_angle_beta   90.00000000
_cell_angle_gamma   60.00000001
_symmetry_Int_Tables_number   1
_chemical_formula_structural   Mo
_chemical_formula_sum   Mo12
_cell_volume   483.37031866
_cell_formula_units_Z   12
loop_
 _symmetry_equiv_pos_site_id
 _symmetry_equiv_pos_as_xyz
  1  'x, y, z'
loop_
 _atom_site_type_symbol
 _atom_site_label
 _atom_site_symmetry_multiplicity
 _atom_site_fract_x
 _atom_site_fract_y
 _atom_site_fract_z
 _atom_site_occupancy
  Mo  Mo0  1  2.11264257  1.42782923  8.88998177  1
  Mo  Mo1  1  -0.02491739  2.65708871  10.01871200  1
  Mo  Mo2  1  -0.02472360  0.12409040  10.68060112  1
  Mo  Mo3  1  2.23117489  1.46114283  11.69913323  1
  Mo  Mo4  1  0.00447351  2.59380811  12.62959029  1
  Mo  Mo5  1  0.01530370  0.01102424  13.45869941  1
  Mo  Mo6  1  2.23266427  1.29591812  14.44402486  1
  Mo  Mo7  1  -0.00309374  2.52759936  15.26371921  1
  Mo  Mo8  1  -0.01851453  0.01927584  16.25368087  1
  Mo  Mo9  1  2.21990168  1.07286307  17.28190713  1
  Mo  Mo10  1  0.08131444  2.42231358  17.93450158  1
  Mo  Mo11  1  0.11910731  -0.11918210  18.85011340  1
