# generated using pymatgen
data_Mo
_symmetry_space_group_name_H-M   'P 1'
_cell_length_a   4.47266654
_cell_length_b   4.47266654
_cell_length_c   27.90077748
_cell_angle_alpha   90.00000000
_cell_angle_beta   90.00000000
_cell_angle_gamma   60.00000001
_symmetry_Int_Tables_number   1
_chemical_formula_structural   Mo
_chemical_formula_sum   Mo12
_cell_volume   483.37031866
_cell_formula_units_Z   12
loop_
 _symmetry_equiv_pos_site_id
 _symmetry_equiv_pos_as_xyz
  1  'x, y, z'
loop_
 _atom_site_type_symbol
 _atom_site_label
 _atom_site_symmetry_multiplicity
 _atom_site_fract_x
 _atom_site_fract_y
 _atom_site_fract_z
 _atom_site_occupancy
  Mo  Mo0  1  2.34465942  1.51027484  9.17459863  1
  Mo  Mo1  1  0.06148711  2.71860449  9.87185213  1
  Mo  Mo2  1  0.08036003  0.10492191  10.64213971  1
  Mo  Mo3  1  2.17821839  1.47645733  11.74097781  1
  Mo  Mo4  1  -0.05169798  2.55005475  12.54467285  1
  Mo  Mo5  1  0.00071906  0.00042942  13.50486509  1
  Mo  Mo6  1  2.22660269  1.21810391  14.43679010  1
  Mo  Mo7  1  -0.05657702  2.43580534  15.24916576  1
  Mo  Mo8  1  -0.01618030  -0.04450230  16.23470404  1
  Mo  Mo9  1  2.23284409  1.19192475  17.21701998  1
  Mo  Mo10  1  -0.00219071  2.47377892  17.98672719  1
  Mo  Mo11  1  -0.05291168  -0.14208193  18.80115158  1
