# generated using pymatgen
data_Mo
_symmetry_space_group_name_H-M   'P 1'
_cell_length_a   4.47266654
_cell_length_b   4.47266654
_cell_length_c   27.90077748
_cell_angle_alpha   90.00000000
_cell_angle_beta   90.00000000
_cell_angle_gamma   60.00000001
_symmetry_Int_Tables_number   1
_chemical_formula_structural   Mo
_chemical_formula_sum   Mo12
_cell_volume   483.37031866
_cell_formula_units_Z   12
loop_
 _symmetry_equiv_pos_site_id
 _symmetry_equiv_pos_as_xyz
  1  'x, y, z'
loop_
 _atom_site_type_symbol
 _atom_site_label
 _atom_site_symmetry_multiplicity
 _atom_site_fract_x
 _atom_site_fract_y
 _atom_site_fract_z
 _atom_site_occupancy
  Mo  Mo0  1  2.35066971  1.26245533  8.85102122  1
  Mo  Mo1  1  -0.00845764  2.63310353  9.83396153  1
  Mo  Mo2  1  0.12234229  -0.01975928  10.63903670  1
  Mo  Mo3  1  2.32503784  1.32351841  11.50159672  1
  Mo  Mo4  1  0.04645387  2.52730744  12.60857343  1
  Mo  Mo5  1  0.03307976  0.10682998  13.54920083  1
  Mo  Mo6  1  2.24915755  1.38812498  14.39206829  1
  Mo  Mo7  1  -0.03598154  2.58670995  15.36479979  1
  Mo  Mo8  1  -0.00792160  -0.05887871  16.27881376  1
  Mo  Mo9  1  2.11662724  1.26730940  17.27472801  1
  Mo  Mo10  1  -0.14880521  2.52244511  18.11243627  1
  Mo  Mo11  1  -0.09686914  -0.04539475  18.99842835  1
