# generated using pymatgen
data_Mo
_symmetry_space_group_name_H-M   'P 1'
_cell_length_a   4.47266654
_cell_length_b   4.47266654
_cell_length_c   27.90077748
_cell_angle_alpha   90.00000000
_cell_angle_beta   90.00000000
_cell_angle_gamma   60.00000001
_symmetry_Int_Tables_number   1
_chemical_formula_structural   Mo
_chemical_formula_sum   Mo12
_cell_volume   483.37031866
_cell_formula_units_Z   12
loop_
 _symmetry_equiv_pos_site_id
 _symmetry_equiv_pos_as_xyz
  1  'x, y, z'
loop_
 _atom_site_type_symbol
 _atom_site_label
 _atom_site_symmetry_multiplicity
 _atom_site_fract_x
 _atom_site_fract_y
 _atom_site_fract_z
 _atom_site_occupancy
  Mo  Mo0  1  2.32533842  1.09211195  8.99617796  1
  Mo  Mo1  1  0.02926694  2.51799391  9.82604696  1
  Mo  Mo2  1  0.08048975  -0.09835724  10.50865154  1
  Mo  Mo3  1  2.30281464  1.24971043  11.65761755  1
  Mo  Mo4  1  0.05815324  2.56189385  12.55637415  1
  Mo  Mo5  1  0.01337489  -0.02279189  13.39791346  1
  Mo  Mo6  1  2.22679528  1.25561877  14.46723080  1
  Mo  Mo7  1  -0.04401191  2.69170382  15.35272119  1
  Mo  Mo8  1  -0.02555839  0.05645246  16.22671586  1
  Mo  Mo9  1  2.15295714  1.43390081  17.38890251  1
  Mo  Mo10  1  -0.10376231  2.65546510  18.02218356  1
  Mo  Mo11  1  -0.07052455  0.10006948  19.00412933  1
