# generated using pymatgen
data_Mo
_symmetry_space_group_name_H-M   'P 1'
_cell_length_a   4.47266654
_cell_length_b   4.47266654
_cell_length_c   27.90077748
_cell_angle_alpha   90.00000000
_cell_angle_beta   90.00000000
_cell_angle_gamma   60.00000001
_symmetry_Int_Tables_number   1
_chemical_formula_structural   Mo
_chemical_formula_sum   Mo12
_cell_volume   483.37031866
_cell_formula_units_Z   12
loop_
 _symmetry_equiv_pos_site_id
 _symmetry_equiv_pos_as_xyz
  1  'x, y, z'
loop_
 _atom_site_type_symbol
 _atom_site_label
 _atom_site_symmetry_multiplicity
 _atom_site_fract_x
 _atom_site_fract_y
 _atom_site_fract_z
 _atom_site_occupancy
  Mo  Mo0  1  2.04744406  1.15446397  9.04894985  1
  Mo  Mo1  1  -0.00624481  2.51674468  9.99169600  1
  Mo  Mo2  1  -0.09153062  0.07281031  10.50657310  1
  Mo  Mo3  1  2.24517024  1.18624519  11.70968351  1
  Mo  Mo4  1  0.01855070  2.58244025  12.47646913  1
  Mo  Mo5  1  -0.00859780  -0.04115056  13.44756069  1
  Mo  Mo6  1  2.26638033  1.31085723  14.40330371  1
  Mo  Mo7  1  0.05435446  2.65746896  15.30511557  1
  Mo  Mo8  1  -0.03519102  -0.00129645  16.27904102  1
  Mo  Mo9  1  2.25593133  1.35609498  17.37171356  1
  Mo  Mo10  1  0.05100233  2.63679898  17.99907260  1
  Mo  Mo11  1  0.14806392  0.06229389  18.86548614  1
