# generated using pymatgen
data_Mo
_symmetry_space_group_name_H-M   'P 1'
_cell_length_a   4.47266654
_cell_length_b   4.47266654
_cell_length_c   27.90077748
_cell_angle_alpha   90.00000000
_cell_angle_beta   90.00000000
_cell_angle_gamma   60.00000001
_symmetry_Int_Tables_number   1
_chemical_formula_structural   Mo
_chemical_formula_sum   Mo12
_cell_volume   483.37031866
_cell_formula_units_Z   12
loop_
 _symmetry_equiv_pos_site_id
 _symmetry_equiv_pos_as_xyz
  1  'x, y, z'
loop_
 _atom_site_type_symbol
 _atom_site_label
 _atom_site_symmetry_multiplicity
 _atom_site_fract_x
 _atom_site_fract_y
 _atom_site_fract_z
 _atom_site_occupancy
  Mo  Mo0  1  2.18880974  1.40016787  8.78674618  1
  Mo  Mo1  1  -0.13125612  2.59537084  9.71294997  1
  Mo  Mo2  1  -0.14134563  0.09268555  10.66792260  1
  Mo  Mo3  1  2.17355308  1.29336392  11.57204475  1
  Mo  Mo4  1  -0.02207828  2.66123112  12.56114368  1
  Mo  Mo5  1  -0.00577128  0.03817607  13.53916009  1
  Mo  Mo6  1  2.21537894  1.39978143  14.44376701  1
  Mo  Mo7  1  0.13500565  2.52871458  15.38345310  1
  Mo  Mo8  1  0.16739707  -0.05723367  16.32178534  1
  Mo  Mo9  1  2.35905345  1.21948312  17.26459731  1
  Mo  Mo10  1  0.01707848  2.46847695  18.10844196  1
  Mo  Mo11  1  -0.01049201  -0.14644638  19.04265285  1
