# generated using pymatgen
data_Mo
_symmetry_space_group_name_H-M   'P 1'
_cell_length_a   4.47266654
_cell_length_b   4.47266654
_cell_length_c   27.90077748
_cell_angle_alpha   90.00000000
_cell_angle_beta   90.00000000
_cell_angle_gamma   60.00000001
_symmetry_Int_Tables_number   1
_chemical_formula_structural   Mo
_chemical_formula_sum   Mo12
_cell_volume   483.37031866
_cell_formula_units_Z   12
loop_
 _symmetry_equiv_pos_site_id
 _symmetry_equiv_pos_as_xyz
  1  'x, y, z'
loop_
 _atom_site_type_symbol
 _atom_site_label
 _atom_site_symmetry_multiplicity
 _atom_site_fract_x
 _atom_site_fract_y
 _atom_site_fract_z
 _atom_site_occupancy
  Mo  Mo0  1  2.19244613  1.51804635  9.10340343  1
  Mo  Mo1  1  -0.03982443  2.75143226  9.85400852  1
  Mo  Mo2  1  0.06511955  0.17302131  10.52691968  1
  Mo  Mo3  1  2.19381977  1.45843026  11.61620711  1
  Mo  Mo4  1  -0.04842577  2.63465901  12.63389389  1
  Mo  Mo5  1  0.03990701  -0.03835821  13.42542778  1
  Mo  Mo6  1  2.20343168  1.26594997  14.40431488  1
  Mo  Mo7  1  -0.07790230  2.42549294  15.31649747  1
  Mo  Mo8  1  -0.04058383  -0.03862654  16.18251318  1
  Mo  Mo9  1  2.26107721  1.12461666  17.33413723  1
  Mo  Mo10  1  0.04807130  2.39882230  18.07212321  1
  Mo  Mo11  1  0.14819680  -0.17971488  18.93521850  1
