# generated using pymatgen
data_Mo
_symmetry_space_group_name_H-M   'P 1'
_cell_length_a   4.47266654
_cell_length_b   4.47266654
_cell_length_c   27.90077748
_cell_angle_alpha   90.00000000
_cell_angle_beta   90.00000000
_cell_angle_gamma   60.00000001
_symmetry_Int_Tables_number   1
_chemical_formula_structural   Mo
_chemical_formula_sum   Mo12
_cell_volume   483.37031866
_cell_formula_units_Z   12
loop_
 _symmetry_equiv_pos_site_id
 _symmetry_equiv_pos_as_xyz
  1  'x, y, z'
loop_
 _atom_site_type_symbol
 _atom_site_label
 _atom_site_symmetry_multiplicity
 _atom_site_fract_x
 _atom_site_fract_y
 _atom_site_fract_z
 _atom_site_occupancy
  Mo  Mo0  1  2.21880799  1.11252365  9.11423345  1
  Mo  Mo1  1  0.08480130  2.32794365  9.92915679  1
  Mo  Mo2  1  -0.04924000  -0.12676875  10.67423385  1
  Mo  Mo3  1  2.17612393  1.18046655  11.67651526  1
  Mo  Mo4  1  -0.01337032  2.52173358  12.55430234  1
  Mo  Mo5  1  -0.02593821  -0.02434230  13.49064022  1
  Mo  Mo6  1  2.21150412  1.26383711  14.35295634  1
  Mo  Mo7  1  -0.04139764  2.70196881  15.33029468  1
  Mo  Mo8  1  -0.06116109  0.10871128  16.12401447  1
  Mo  Mo9  1  2.31819508  1.53731400  17.23776883  1
  Mo  Mo10  1  0.07998025  2.72628348  18.02439213  1
  Mo  Mo11  1  0.04702770  0.16410035  18.89615650  1
