# generated using pymatgen
data_Mo
_symmetry_space_group_name_H-M   'P 1'
_cell_length_a   4.47266654
_cell_length_b   4.47266654
_cell_length_c   27.90077748
_cell_angle_alpha   90.00000000
_cell_angle_beta   90.00000000
_cell_angle_gamma   60.00000001
_symmetry_Int_Tables_number   1
_chemical_formula_structural   Mo
_chemical_formula_sum   Mo12
_cell_volume   483.37031866
_cell_formula_units_Z   12
loop_
 _symmetry_equiv_pos_site_id
 _symmetry_equiv_pos_as_xyz
  1  'x, y, z'
loop_
 _atom_site_type_symbol
 _atom_site_label
 _atom_site_symmetry_multiplicity
 _atom_site_fract_x
 _atom_site_fract_y
 _atom_site_fract_z
 _atom_site_occupancy
  Mo  Mo0  1  2.03357805  1.19795204  9.01500448  1
  Mo  Mo1  1  -0.12551186  2.48267844  9.93818174  1
  Mo  Mo2  1  -0.08649367  0.03664724  10.67225044  1
  Mo  Mo3  1  2.24117027  1.27503802  11.65958565  1
  Mo  Mo4  1  0.00922465  2.60898251  12.57043517  1
  Mo  Mo5  1  0.03038844  0.00418776  13.54384161  1
  Mo  Mo6  1  2.25187221  1.34721563  14.45488437  1
  Mo  Mo7  1  0.06836101  2.62746416  15.31451302  1
  Mo  Mo8  1  0.05785545  -0.01052021  16.19388548  1
  Mo  Mo9  1  2.32798440  1.34346114  17.18106707  1
  Mo  Mo10  1  0.02414928  2.53357623  18.02111785  1
  Mo  Mo11  1  0.11275489  0.04708845  18.83989800  1
