# generated using pymatgen
data_Mo
_symmetry_space_group_name_H-M   'P 1'
_cell_length_a   4.47266654
_cell_length_b   4.47266654
_cell_length_c   27.90077748
_cell_angle_alpha   90.00000000
_cell_angle_beta   90.00000000
_cell_angle_gamma   60.00000001
_symmetry_Int_Tables_number   1
_chemical_formula_structural   Mo
_chemical_formula_sum   Mo12
_cell_volume   483.37031866
_cell_formula_units_Z   12
loop_
 _symmetry_equiv_pos_site_id
 _symmetry_equiv_pos_as_xyz
  1  'x, y, z'
loop_
 _atom_site_type_symbol
 _atom_site_label
 _atom_site_symmetry_multiplicity
 _atom_site_fract_x
 _atom_site_fract_y
 _atom_site_fract_z
 _atom_site_occupancy
  Mo  Mo0  1  2.20995462  1.53416880  8.93938876  1
  Mo  Mo1  1  -0.04509384  2.79909673  9.78493667  1
  Mo  Mo2  1  0.05173725  0.11231689  10.60982046  1
  Mo  Mo3  1  2.25066518  1.42919165  11.63760793  1
  Mo  Mo4  1  -0.00978995  2.68828741  12.64615661  1
  Mo  Mo5  1  0.02479127  -0.00603860  13.44367966  1
  Mo  Mo6  1  2.17043826  1.25165411  14.38249168  1
  Mo  Mo7  1  -0.12133337  2.42770792  15.40755663  1
  Mo  Mo8  1  -0.10457681  -0.06941866  16.25218058  1
  Mo  Mo9  1  2.29660102  1.11928705  17.29804560  1
  Mo  Mo10  1  0.09822050  2.42233804  18.13348223  1
  Mo  Mo11  1  0.12371900  -0.21481993  18.86931807  1
