# generated using pymatgen
data_Mo
_symmetry_space_group_name_H-M   'P 1'
_cell_length_a   4.47266654
_cell_length_b   4.47266654
_cell_length_c   27.90077748
_cell_angle_alpha   90.00000000
_cell_angle_beta   90.00000000
_cell_angle_gamma   60.00000001
_symmetry_Int_Tables_number   1
_chemical_formula_structural   Mo
_chemical_formula_sum   Mo12
_cell_volume   483.37031866
_cell_formula_units_Z   12
loop_
 _symmetry_equiv_pos_site_id
 _symmetry_equiv_pos_as_xyz
  1  'x, y, z'
loop_
 _atom_site_type_symbol
 _atom_site_label
 _atom_site_symmetry_multiplicity
 _atom_site_fract_x
 _atom_site_fract_y
 _atom_site_fract_z
 _atom_site_occupancy
  Mo  Mo0  1  2.31162283  1.34364296  9.09852702  1
  Mo  Mo1  1  0.07980627  2.66745298  9.94684463  1
  Mo  Mo2  1  0.08725444  0.00189830  10.71388839  1
  Mo  Mo3  1  2.19527796  1.41551660  11.75427565  1
  Mo  Mo4  1  -0.03586961  2.62116478  12.64266665  1
  Mo  Mo5  1  0.00731310  0.01409969  13.54912433  1
  Mo  Mo6  1  2.30953898  1.29835364  14.36730500  1
  Mo  Mo7  1  0.09961122  2.64052097  15.27271238  1
  Mo  Mo8  1  0.01072367  -0.00845285  16.19798770  1
  Mo  Mo9  1  2.17101755  1.08292837  17.15406366  1
  Mo  Mo10  1  -0.09183960  2.51549976  17.80161395  1
  Mo  Mo11  1  -0.19912367  -0.09885380  18.90565553  1
