# generated using pymatgen
data_Mo
_symmetry_space_group_name_H-M   'P 1'
_cell_length_a   4.47266654
_cell_length_b   4.47266654
_cell_length_c   27.90077748
_cell_angle_alpha   90.00000000
_cell_angle_beta   90.00000000
_cell_angle_gamma   60.00000001
_symmetry_Int_Tables_number   1
_chemical_formula_structural   Mo
_chemical_formula_sum   Mo12
_cell_volume   483.37031866
_cell_formula_units_Z   12
loop_
 _symmetry_equiv_pos_site_id
 _symmetry_equiv_pos_as_xyz
  1  'x, y, z'
loop_
 _atom_site_type_symbol
 _atom_site_label
 _atom_site_symmetry_multiplicity
 _atom_site_fract_x
 _atom_site_fract_y
 _atom_site_fract_z
 _atom_site_occupancy
  Mo  Mo0  1  2.26969294  1.17625932  9.00457523  1
  Mo  Mo1  1  0.10233345  2.51166606  9.91165191  1
  Mo  Mo2  1  0.07979789  -0.10178610  10.60008307  1
  Mo  Mo3  1  2.37280176  1.23652832  11.62869191  1
  Mo  Mo4  1  0.22354117  2.47450065  12.49857868  1
  Mo  Mo5  1  0.05957005  0.03018642  13.46255222  1
  Mo  Mo6  1  2.19288726  1.24162972  14.41204647  1
  Mo  Mo7  1  -0.08054122  2.64260061  15.38260612  1
  Mo  Mo8  1  -0.06390003  0.05544516  16.15513152  1
  Mo  Mo9  1  2.04870571  1.37655278  17.36280913  1
  Mo  Mo10  1  -0.15403024  2.78277382  18.11751774  1
  Mo  Mo11  1  -0.10552561  0.06741467  18.86842089  1
