# generated using pymatgen
data_Mo
_symmetry_space_group_name_H-M   'P 1'
_cell_length_a   4.47266654
_cell_length_b   4.47266654
_cell_length_c   27.90077748
_cell_angle_alpha   90.00000000
_cell_angle_beta   90.00000000
_cell_angle_gamma   60.00000001
_symmetry_Int_Tables_number   1
_chemical_formula_structural   Mo
_chemical_formula_sum   Mo12
_cell_volume   483.37031866
_cell_formula_units_Z   12
loop_
 _symmetry_equiv_pos_site_id
 _symmetry_equiv_pos_as_xyz
  1  'x, y, z'
loop_
 _atom_site_type_symbol
 _atom_site_label
 _atom_site_symmetry_multiplicity
 _atom_site_fract_x
 _atom_site_fract_y
 _atom_site_fract_z
 _atom_site_occupancy
  Mo  Mo0  1  2.47924397  1.11677243  8.82567849  1
  Mo  Mo1  1  0.17101164  2.38267038  9.78071790  1
  Mo  Mo2  1  0.03858663  -0.17404603  10.55173779  1
  Mo  Mo3  1  2.21556346  1.12220944  11.57310899  1
  Mo  Mo4  1  -0.04451279  2.45724376  12.49265002  1
  Mo  Mo5  1  -0.11407675  0.05904986  13.51826980  1
  Mo  Mo6  1  2.19446717  1.26200134  14.45253272  1
  Mo  Mo7  1  -0.04938989  2.61522559  15.36872139  1
  Mo  Mo8  1  -0.01674776  0.08445714  16.41747287  1
  Mo  Mo9  1  2.21003641  1.47260727  17.23410297  1
  Mo  Mo10  1  -0.02803786  2.79655329  18.07122463  1
  Mo  Mo11  1  -0.11081110  0.29902693  19.11844731  1
