# generated using pymatgen
data_Mo
_symmetry_space_group_name_H-M   'P 1'
_cell_length_a   4.47266654
_cell_length_b   4.47266654
_cell_length_c   27.90077748
_cell_angle_alpha   90.00000000
_cell_angle_beta   90.00000000
_cell_angle_gamma   60.00000001
_symmetry_Int_Tables_number   1
_chemical_formula_structural   Mo
_chemical_formula_sum   Mo12
_cell_volume   483.37031866
_cell_formula_units_Z   12
loop_
 _symmetry_equiv_pos_site_id
 _symmetry_equiv_pos_as_xyz
  1  'x, y, z'
loop_
 _atom_site_type_symbol
 _atom_site_label
 _atom_site_symmetry_multiplicity
 _atom_site_fract_x
 _atom_site_fract_y
 _atom_site_fract_z
 _atom_site_occupancy
  Mo  Mo0  1  2.17128736  1.41306118  9.04624923  1
  Mo  Mo1  1  0.02413917  2.60812599  9.92965262  1
  Mo  Mo2  1  -0.06674327  0.15109916  10.57068640  1
  Mo  Mo3  1  2.16446066  1.31929134  11.66569232  1
  Mo  Mo4  1  -0.04081910  2.60730275  12.65582237  1
  Mo  Mo5  1  0.01273931  -0.02846970  13.45436311  1
  Mo  Mo6  1  2.20908496  1.31600057  14.47726484  1
  Mo  Mo7  1  0.06655865  2.53022423  15.27855082  1
  Mo  Mo8  1  0.06452931  -0.13025948  16.21886522  1
  Mo  Mo9  1  2.25344489  1.25912191  17.35838036  1
  Mo  Mo10  1  -0.00288436  2.56278309  17.94836028  1
  Mo  Mo11  1  0.08953556  -0.11450965  18.80077728  1
