# generated using pymatgen
data_Mo
_symmetry_space_group_name_H-M   'P 1'
_cell_length_a   4.47266654
_cell_length_b   4.47266654
_cell_length_c   27.90077748
_cell_angle_alpha   90.00000000
_cell_angle_beta   90.00000000
_cell_angle_gamma   60.00000001
_symmetry_Int_Tables_number   1
_chemical_formula_structural   Mo
_chemical_formula_sum   Mo12
_cell_volume   483.37031866
_cell_formula_units_Z   12
loop_
 _symmetry_equiv_pos_site_id
 _symmetry_equiv_pos_as_xyz
  1  'x, y, z'
loop_
 _atom_site_type_symbol
 _atom_site_label
 _atom_site_symmetry_multiplicity
 _atom_site_fract_x
 _atom_site_fract_y
 _atom_site_fract_z
 _atom_site_occupancy
  Mo  Mo0  1  2.22012805  1.49519756  8.95047542  1
  Mo  Mo1  1  0.06332364  2.75130251  9.88960088  1
  Mo  Mo2  1  -0.04609936  0.18844120  10.77527077  1
  Mo  Mo3  1  2.26063036  1.37704801  11.60098594  1
  Mo  Mo4  1  0.03747596  2.65095843  12.51575707  1
  Mo  Mo5  1  -0.02214672  -0.00099319  13.46766433  1
  Mo  Mo6  1  2.15441951  1.22072032  14.42898068  1
  Mo  Mo7  1  -0.01649987  2.52114951  15.28585480  1
  Mo  Mo8  1  -0.00540569  -0.06005536  16.20753151  1
  Mo  Mo9  1  2.20290039  1.06208549  17.19092483  1
  Mo  Mo10  1  0.06130998  2.43277042  18.11136975  1
  Mo  Mo11  1  0.03529686  -0.14485348  18.98024888  1
