# generated using pymatgen
data_Mo
_symmetry_space_group_name_H-M   'P 1'
_cell_length_a   25.43643199
_cell_length_b   2.73880610
_cell_length_c   4.47245071
_cell_angle_alpha   90.00000000
_cell_angle_beta   90.00000000
_cell_angle_gamma   90.00000000
_symmetry_Int_Tables_number   1
_chemical_formula_structural   Mo
_chemical_formula_sum   Mo12
_cell_volume   311.57531409
_cell_formula_units_Z   12
loop_
 _symmetry_equiv_pos_site_id
 _symmetry_equiv_pos_as_xyz
  1  'x, y, z'
loop_
 _atom_site_type_symbol
 _atom_site_label
 _atom_site_symmetry_multiplicity
 _atom_site_fract_x
 _atom_site_fract_y
 _atom_site_fract_z
 _atom_site_occupancy
  Mo  Mo0  1  0.16151343  -0.07573805  0.00615328  1
  Mo  Mo1  1  5.19036244  0.92544454  0.01525912  1
  Mo  Mo2  1  2.55725154  1.86188925  -0.00797175  1
  Mo  Mo3  1  3.83731445  0.01380559  2.23183357  1
  Mo  Mo4  1  1.26096624  0.89920720  2.23607997  1
  Mo  Mo5  1  6.44491322  1.80733284  2.21803839  1
  Mo  Mo6  1  7.74725509  -0.00683529  -0.00723607  1
  Mo  Mo7  1  12.96647631  0.93981507  -0.00052696  1
  Mo  Mo8  1  10.35510376  1.79382922  0.00078705  1
  Mo  Mo9  1  11.61722503  -0.02155558  2.22703844  1
  Mo  Mo10  1  9.03266387  0.90656344  2.25179166  1
  Mo  Mo11  1  14.04059419  1.91146520  2.24610741  1
