# generated using pymatgen
data_Mo
_symmetry_space_group_name_H-M   'P 1'
_cell_length_a   25.43643199
_cell_length_b   2.73880610
_cell_length_c   4.47245071
_cell_angle_alpha   90.00000000
_cell_angle_beta   90.00000000
_cell_angle_gamma   90.00000000
_symmetry_Int_Tables_number   1
_chemical_formula_structural   Mo
_chemical_formula_sum   Mo12
_cell_volume   311.57531409
_cell_formula_units_Z   12
loop_
 _symmetry_equiv_pos_site_id
 _symmetry_equiv_pos_as_xyz
  1  'x, y, z'
loop_
 _atom_site_type_symbol
 _atom_site_label
 _atom_site_symmetry_multiplicity
 _atom_site_fract_x
 _atom_site_fract_y
 _atom_site_fract_z
 _atom_site_occupancy
  Mo  Mo0  1  0.16443719  -0.07700642  0.01269114  1
  Mo  Mo1  1  5.19838348  0.93655970  0.03002414  1
  Mo  Mo2  1  2.54620690  1.86810063  -0.01627793  1
  Mo  Mo3  1  3.82856398  0.01346664  2.22742482  1
  Mo  Mo4  1  1.26767741  0.90516997  2.23589114  1
  Mo  Mo5  1  6.44015312  1.80116593  2.19978189  1
  Mo  Mo6  1  7.74192781  -0.02782237  -0.01469242  1
  Mo  Mo7  1  12.98587580  0.94811809  -0.00097824  1
  Mo  Mo8  1  10.35409830  1.77524458  0.00171190  1
  Mo  Mo9  1  11.60081683  -0.01262213  2.21771923  1
  Mo  Mo10  1  9.04497024  0.90086225  2.26746194  1
  Mo  Mo11  1  14.03852854  1.92398656  2.25659647  1
