# generated using pymatgen
data_Mo
_symmetry_space_group_name_H-M   'P 1'
_cell_length_a   25.43643199
_cell_length_b   2.73880610
_cell_length_c   4.47245071
_cell_angle_alpha   90.00000000
_cell_angle_beta   90.00000000
_cell_angle_gamma   90.00000000
_symmetry_Int_Tables_number   1
_chemical_formula_structural   Mo
_chemical_formula_sum   Mo12
_cell_volume   311.57531409
_cell_formula_units_Z   12
loop_
 _symmetry_equiv_pos_site_id
 _symmetry_equiv_pos_as_xyz
  1  'x, y, z'
loop_
 _atom_site_type_symbol
 _atom_site_label
 _atom_site_symmetry_multiplicity
 _atom_site_fract_x
 _atom_site_fract_y
 _atom_site_fract_z
 _atom_site_occupancy
  Mo  Mo0  1  0.16654747  -0.07788019  0.01861085  1
  Mo  Mo1  1  5.20370087  0.94582493  0.04038367  1
  Mo  Mo2  1  2.53804508  1.87386983  -0.02343353  1
  Mo  Mo3  1  3.82159197  0.01382192  2.22390829  1
  Mo  Mo4  1  1.27271843  0.91080043  2.23563356  1
  Mo  Mo5  1  6.43687918  1.79557226  2.18549718  1
  Mo  Mo6  1  7.73780785  -0.04725768  -0.02097161  1
  Mo  Mo7  1  13.00219283  0.95604278  -0.00109577  1
  Mo  Mo8  1  10.35348781  1.75859659  0.00273184  1
  Mo  Mo9  1  11.58803213  -0.00491409  2.21022095  1
  Mo  Mo10  1  9.05415514  0.89409931  2.27983200  1
  Mo  Mo11  1  14.03648083  1.93664731  2.26603668  1
