# generated using pymatgen
data_Mo
_symmetry_space_group_name_H-M   'P 1'
_cell_length_a   25.43643199
_cell_length_b   2.73880610
_cell_length_c   4.47245071
_cell_angle_alpha   90.00000000
_cell_angle_beta   90.00000000
_cell_angle_gamma   90.00000000
_symmetry_Int_Tables_number   1
_chemical_formula_structural   Mo
_chemical_formula_sum   Mo12
_cell_volume   311.57531409
_cell_formula_units_Z   12
loop_
 _symmetry_equiv_pos_site_id
 _symmetry_equiv_pos_as_xyz
  1  'x, y, z'
loop_
 _atom_site_type_symbol
 _atom_site_label
 _atom_site_symmetry_multiplicity
 _atom_site_fract_x
 _atom_site_fract_y
 _atom_site_fract_z
 _atom_site_occupancy
  Mo  Mo0  1  0.16682880  -0.07755160  0.02753150  1
  Mo  Mo1  1  5.20270440  0.95570596  0.04221938  1
  Mo  Mo2  1  2.53370926  1.88328868  -0.03234319  1
  Mo  Mo3  1  3.81510707  0.01768294  2.22029307  1
  Mo  Mo4  1  1.27549349  0.92042237  2.23478378  1
  Mo  Mo5  1  6.43639924  1.78666307  2.17421304  1
  Mo  Mo6  1  7.73518399  -0.07859900  -0.02823060  1
  Mo  Mo7  1  13.02118564  0.97033815  0.00053313  1
  Mo  Mo8  1  10.35428716  1.73395306  0.00502686  1
  Mo  Mo9  1  11.57882151  0.00477294  2.20349111  1
  Mo  Mo10  1  9.05890711  0.87632533  2.28996858  1
  Mo  Mo11  1  14.03301192  1.96222154  2.27986745  1
