# generated using pymatgen
data_Mo
_symmetry_space_group_name_H-M   'P 1'
_cell_length_a   25.43643199
_cell_length_b   2.73880610
_cell_length_c   4.47245071
_cell_angle_alpha   90.00000000
_cell_angle_beta   90.00000000
_cell_angle_gamma   90.00000000
_symmetry_Int_Tables_number   1
_chemical_formula_structural   Mo
_chemical_formula_sum   Mo12
_cell_volume   311.57531409
_cell_formula_units_Z   12
loop_
 _symmetry_equiv_pos_site_id
 _symmetry_equiv_pos_as_xyz
  1  'x, y, z'
loop_
 _atom_site_type_symbol
 _atom_site_label
 _atom_site_symmetry_multiplicity
 _atom_site_fract_x
 _atom_site_fract_y
 _atom_site_fract_z
 _atom_site_occupancy
  Mo  Mo0  1  0.16147888  -0.07357725  0.03128434  1
  Mo  Mo1  1  5.18599206  0.95151415  0.01784113  1
  Mo  Mo2  1  2.54566106  1.88911002  -0.03220283  1
  Mo  Mo3  1  3.81993234  0.02625064  2.22057567  1
  Mo  Mo4  1  1.26749948  0.92724567  2.23365549  1
  Mo  Mo5  1  6.44363729  1.78074209  2.18730832  1
  Mo  Mo6  1  7.74063572  -0.09683712  -0.02685010  1
  Mo  Mo7  1  13.01886429  0.98216605  0.00561515  1
  Mo  Mo8  1  10.35802747  1.72327962  0.00705391  1
  Mo  Mo9  1  11.59379386  0.00496649  2.21001142  1
  Mo  Mo10  1  9.04437806  0.85303364  2.27797374  1
  Mo  Mo11  1  14.03173907  1.98732942  2.28508786  1
