# generated using pymatgen
data_Mo
_symmetry_space_group_name_H-M   'P 1'
_cell_length_a   25.43643199
_cell_length_b   2.73880610
_cell_length_c   4.47245071
_cell_angle_alpha   90.00000000
_cell_angle_beta   90.00000000
_cell_angle_gamma   90.00000000
_symmetry_Int_Tables_number   1
_chemical_formula_structural   Mo
_chemical_formula_sum   Mo12
_cell_volume   311.57531409
_cell_formula_units_Z   12
loop_
 _symmetry_equiv_pos_site_id
 _symmetry_equiv_pos_as_xyz
  1  'x, y, z'
loop_
 _atom_site_type_symbol
 _atom_site_label
 _atom_site_symmetry_multiplicity
 _atom_site_fract_x
 _atom_site_fract_y
 _atom_site_fract_z
 _atom_site_occupancy
  Mo  Mo0  1  0.15743346  -0.07016635  0.03096436  1
  Mo  Mo1  1  5.17389709  0.94430119  -0.00141677  1
  Mo  Mo2  1  2.55588641  1.89063544  -0.02872611  1
  Mo  Mo3  1  3.82614360  0.03194664  2.22134046  1
  Mo  Mo4  1  1.26024240  0.92957149  2.23323267  1
  Mo  Mo5  1  6.44889036  1.77848435  2.20062650  1
  Mo  Mo6  1  7.74556791  -0.10061299  -0.02295382  1
  Mo  Mo7  1  13.01003364  0.98705372  0.00949824  1
  Mo  Mo8  1  10.36073186  1.72323187  0.00759503  1
  Mo  Mo9  1  11.60850441  0.00154807  2.21802240  1
  Mo  Mo10  1  9.03177573  0.84006500  2.26476523  1
  Mo  Mo11  1  14.03253273  1.99916499  2.28440589  1
