# generated using pymatgen
data_Mo
_symmetry_space_group_name_H-M   'P 1'
_cell_length_a   25.43643199
_cell_length_b   2.73880610
_cell_length_c   4.47245071
_cell_angle_alpha   90.00000000
_cell_angle_beta   90.00000000
_cell_angle_gamma   90.00000000
_symmetry_Int_Tables_number   1
_chemical_formula_structural   Mo
_chemical_formula_sum   Mo12
_cell_volume   311.57531409
_cell_formula_units_Z   12
loop_
 _symmetry_equiv_pos_site_id
 _symmetry_equiv_pos_as_xyz
  1  'x, y, z'
loop_
 _atom_site_type_symbol
 _atom_site_label
 _atom_site_symmetry_multiplicity
 _atom_site_fract_x
 _atom_site_fract_y
 _atom_site_fract_z
 _atom_site_occupancy
  Mo  Mo0  1  0.15318708  -0.06591106  0.02917952  1
  Mo  Mo1  1  5.16132605  0.93431020  -0.02266621  1
  Mo  Mo2  1  2.56717117  1.89134040  -0.02337137  1
  Mo  Mo3  1  3.83412855  0.03808731  2.22188217  1
  Mo  Mo4  1  1.25173839  0.93125089  2.23309548  1
  Mo  Mo5  1  6.45422386  1.77635107  2.21610981  1
  Mo  Mo6  1  7.75110187  -0.10100540  -0.01733984  1
  Mo  Mo7  1  12.99701689  0.99119631  0.01412047  1
  Mo  Mo8  1  10.36371297  1.72634761  0.00763817  1
  Mo  Mo9  1  11.62584694  -0.00376512  2.22852454  1
  Mo  Mo10  1  9.01757920  0.82692959  2.24833633  1
  Mo  Mo11  1  14.03460662  2.01009162  2.28184504  1
