# generated using pymatgen
data_Mo
_symmetry_space_group_name_H-M   'P 1'
_cell_length_a   25.43643199
_cell_length_b   2.73880610
_cell_length_c   4.47245071
_cell_angle_alpha   90.00000000
_cell_angle_beta   90.00000000
_cell_angle_gamma   90.00000000
_symmetry_Int_Tables_number   1
_chemical_formula_structural   Mo
_chemical_formula_sum   Mo12
_cell_volume   311.57531409
_cell_formula_units_Z   12
loop_
 _symmetry_equiv_pos_site_id
 _symmetry_equiv_pos_as_xyz
  1  'x, y, z'
loop_
 _atom_site_type_symbol
 _atom_site_label
 _atom_site_symmetry_multiplicity
 _atom_site_fract_x
 _atom_site_fract_y
 _atom_site_fract_z
 _atom_site_occupancy
  Mo  Mo0  1  0.14929798  -0.06095165  0.02602713  1
  Mo  Mo1  1  5.14997487  0.92228285  -0.04351039  1
  Mo  Mo2  1  2.57797620  1.89135060  -0.01666393  1
  Mo  Mo3  1  3.84304383  0.04412581  2.22171110  1
  Mo  Mo4  1  1.24284268  0.93238542  2.23337465  1
  Mo  Mo5  1  6.45889819  1.77408998  2.23174366  1
  Mo  Mo6  1  7.75646009  -0.09839689  -0.01059774  1
  Mo  Mo7  1  12.98096649  0.99454091  0.01928365  1
  Mo  Mo8  1  10.36669347  1.73216864  0.00711455  1
  Mo  Mo9  1  11.64376193  -0.01039817  2.24072151  1
  Mo  Mo10  1  9.00355097  0.81431573  2.23033186  1
  Mo  Mo11  1  14.03817290  2.01971019  2.27781806  1
