# generated using pymatgen
data_Mo
_symmetry_space_group_name_H-M   'P 1'
_cell_length_a   25.43643199
_cell_length_b   2.73880610
_cell_length_c   4.47245071
_cell_angle_alpha   90.00000000
_cell_angle_beta   90.00000000
_cell_angle_gamma   90.00000000
_symmetry_Int_Tables_number   1
_chemical_formula_structural   Mo
_chemical_formula_sum   Mo12
_cell_volume   311.57531409
_cell_formula_units_Z   12
loop_
 _symmetry_equiv_pos_site_id
 _symmetry_equiv_pos_as_xyz
  1  'x, y, z'
loop_
 _atom_site_type_symbol
 _atom_site_label
 _atom_site_symmetry_multiplicity
 _atom_site_fract_x
 _atom_site_fract_y
 _atom_site_fract_z
 _atom_site_occupancy
  Mo  Mo0  1  0.14624486  -0.05546011  0.02168191  1
  Mo  Mo1  1  5.14141253  0.90909256  -0.06159867  1
  Mo  Mo2  1  2.58685179  1.89080759  -0.00926514  1
  Mo  Mo3  1  3.85192929  0.04942185  2.22042563  1
  Mo  Mo4  1  1.23442652  0.93309795  2.23415446  1
  Mo  Mo5  1  6.46231750  1.77150519  2.24560529  1
  Mo  Mo6  1  7.76086713  -0.09333627  -0.00350707  1
  Mo  Mo7  1  12.96331956  0.99703232  0.02477053  1
  Mo  Mo8  1  10.36935745  1.74014366  0.00603213  1
  Mo  Mo9  1  11.66015350  -0.01764947  2.25366901  1
  Mo  Mo10  1  8.99142575  0.80297149  2.21256663  1
  Mo  Mo11  1  14.04333371  2.02759667  2.27281938  1
