# generated using pymatgen
data_Mo
_symmetry_space_group_name_H-M   'P 1'
_cell_length_a   25.43643199
_cell_length_b   2.73880610
_cell_length_c   4.47245071
_cell_angle_alpha   90.00000000
_cell_angle_beta   90.00000000
_cell_angle_gamma   90.00000000
_symmetry_Int_Tables_number   1
_chemical_formula_structural   Mo
_chemical_formula_sum   Mo12
_cell_volume   311.57531409
_cell_formula_units_Z   12
loop_
 _symmetry_equiv_pos_site_id
 _symmetry_equiv_pos_as_xyz
  1  'x, y, z'
loop_
 _atom_site_type_symbol
 _atom_site_label
 _atom_site_symmetry_multiplicity
 _atom_site_fract_x
 _atom_site_fract_y
 _atom_site_fract_z
 _atom_site_occupancy
  Mo  Mo0  1  0.14437331  -0.04962821  0.01639095  1
  Mo  Mo1  1  5.13686970  0.89567140  -0.07489420  1
  Mo  Mo2  1  2.59262069  1.88984878  -0.00191673  1
  Mo  Mo3  1  3.85981793  0.05330114  2.21780472  1
  Mo  Mo4  1  1.22728894  0.93352076  2.23545082  1
  Mo  Mo5  1  6.46409797  1.76847785  2.25606378  1
  Mo  Mo6  1  7.76364911  -0.08648847  0.00303004  1
  Mo  Mo7  1  12.94568627  0.99862049  0.03037762  1
  Mo  Mo8  1  10.37135822  1.74966295  0.00448059  1
  Mo  Mo9  1  11.67315402  -0.02476897  2.26635595  1
  Mo  Mo10  1  8.98270654  0.79365848  2.19684142  1
  Mo  Mo11  1  14.05001687  2.03334721  2.26736916  1
