# generated using pymatgen
data_Mo
_symmetry_space_group_name_H-M   'P 1'
_cell_length_a   25.43643199
_cell_length_b   2.73880610
_cell_length_c   4.47245071
_cell_angle_alpha   90.00000000
_cell_angle_beta   90.00000000
_cell_angle_gamma   90.00000000
_symmetry_Int_Tables_number   1
_chemical_formula_structural   Mo
_chemical_formula_sum   Mo12
_cell_volume   311.57531409
_cell_formula_units_Z   12
loop_
 _symmetry_equiv_pos_site_id
 _symmetry_equiv_pos_as_xyz
  1  'x, y, z'
loop_
 _atom_site_type_symbol
 _atom_site_label
 _atom_site_symmetry_multiplicity
 _atom_site_fract_x
 _atom_site_fract_y
 _atom_site_fract_z
 _atom_site_occupancy
  Mo  Mo0  1  0.14388204  -0.04365928  0.01045813  1
  Mo  Mo1  1  5.13706999  0.88291686  -0.08191822  1
  Mo  Mo2  1  2.59453244  1.88859608  0.00462741  1
  Mo  Mo3  1  3.86584455  0.05513613  2.21388760  1
  Mo  Mo4  1  1.22209275  0.93378462  2.23720069  1
  Mo  Mo5  1  6.46410145  1.76497989  2.26193524  1
  Mo  Mo6  1  7.76432137  -0.07856481  0.00809791  1
  Mo  Mo7  1  12.92968718  0.99926732  0.03593516  1
  Mo  Mo8  1  10.37233734  1.76010179  0.00262457  1
  Mo  Mo9  1  11.68136901  -0.03104828  2.27779302  1
  Mo  Mo10  1  8.97847875  0.78708215  2.18475135  1
  Mo  Mo11  1  14.05792269  2.03663094  2.26196126  1
