# generated using pymatgen
data_Mo
_symmetry_space_group_name_H-M   'P 1'
_cell_length_a   25.43643199
_cell_length_b   2.73880610
_cell_length_c   4.47245071
_cell_angle_alpha   90.00000000
_cell_angle_beta   90.00000000
_cell_angle_gamma   90.00000000
_symmetry_Int_Tables_number   1
_chemical_formula_structural   Mo
_chemical_formula_sum   Mo12
_cell_volume   311.57531409
_cell_formula_units_Z   12
loop_
 _symmetry_equiv_pos_site_id
 _symmetry_equiv_pos_as_xyz
  1  'x, y, z'
loop_
 _atom_site_type_symbol
 _atom_site_label
 _atom_site_symmetry_multiplicity
 _atom_site_fract_x
 _atom_site_fract_y
 _atom_site_fract_z
 _atom_site_occupancy
  Mo  Mo0  1  0.14477074  -0.03775671  0.00422284  1
  Mo  Mo1  1  5.14214211  0.87161179  -0.08193718  1
  Mo  Mo2  1  2.59236035  1.88714911  0.00967324  1
  Mo  Mo3  1  3.86937548  0.05442676  2.20901921  1
  Mo  Mo4  1  1.21930351  0.93400768  2.23926004  1
  Mo  Mo5  1  6.46243610  1.76106176  2.26258650  1
  Mo  Mo6  1  7.76267592  -0.07025709  0.01089657  1
  Mo  Mo7  1  12.91678749  0.99896307  0.04130015  1
  Mo  Mo8  1  10.37196756  1.77084253  0.00069333  1
  Mo  Mo9  1  11.68405471  -0.03589889  2.28709502  1
  Mo  Mo10  1  8.97928057  0.78384450  2.17751407  1
  Mo  Mo11  1  14.06648503  2.03722891  2.25703031  1
