# generated using pymatgen
data_Mo
_symmetry_space_group_name_H-M   'P 1'
_cell_length_a   25.43643199
_cell_length_b   2.73880610
_cell_length_c   4.47245071
_cell_angle_alpha   90.00000000
_cell_angle_beta   90.00000000
_cell_angle_gamma   90.00000000
_symmetry_Int_Tables_number   1
_chemical_formula_structural   Mo
_chemical_formula_sum   Mo12
_cell_volume   311.57531409
_cell_formula_units_Z   12
loop_
 _symmetry_equiv_pos_site_id
 _symmetry_equiv_pos_as_xyz
  1  'x, y, z'
loop_
 _atom_site_type_symbol
 _atom_site_label
 _atom_site_symmetry_multiplicity
 _atom_site_fract_x
 _atom_site_fract_y
 _atom_site_fract_z
 _atom_site_occupancy
  Mo  Mo0  1  0.14687224  -0.03211832  -0.00196120  1
  Mo  Mo1  1  5.15159938  0.86235605  -0.07505374  1
  Mo  Mo2  1  2.58642629  1.88558024  0.01265159  1
  Mo  Mo3  1  3.87008162  0.05086750  2.20383536  1
  Mo  Mo4  1  1.21917661  0.93428692  2.24141097  1
  Mo  Mo5  1  6.45941823  1.75684454  2.25798219  1
  Mo  Mo6  1  7.75884769  -0.06217337  0.01087160  1
  Mo  Mo7  1  12.90811937  0.99773673  0.04632709  1
  Mo  Mo8  1  10.37000847  1.78130180  -0.00103659  1
  Mo  Mo9  1  11.68116037  -0.03890558  2.29355876  1
  Mo  Mo10  1  8.98503662  0.78439477  2.17583242  1
  Mo  Mo11  1  14.07489269  2.03505214  2.25293565  1
