# generated using pymatgen
data_Mo
_symmetry_space_group_name_H-M   'P 1'
_cell_length_a   9.55433634
_cell_length_b   12.76995670
_cell_length_c   15.89295682
_cell_angle_alpha   90.00000000
_cell_angle_beta   90.00000000
_cell_angle_gamma   90.00000000
_symmetry_Int_Tables_number   1
_chemical_formula_structural   Mo
_chemical_formula_sum   Mo121
_cell_volume   1939.07520964
_cell_formula_units_Z   121
loop_
 _symmetry_equiv_pos_site_id
 _symmetry_equiv_pos_as_xyz
  1  'x, y, z'
loop_
 _atom_site_type_symbol
 _atom_site_label
 _atom_site_symmetry_multiplicity
 _atom_site_fract_x
 _atom_site_fract_y
 _atom_site_fract_z
 _atom_site_occupancy
  Mo  Mo0  1  1.57880914  1.54885224  4.76279982  1
  Mo  Mo1  1  1.58574977  4.77856766  1.53255815  1
  Mo  Mo2  1  2.19036881  1.72774965  0.98674678  1
  Mo  Mo3  1  0.57252137  0.88666868  2.43524687  1
  Mo  Mo4  1  3.15791616  3.20058266  3.07258318  1
  Mo  Mo5  1  3.21615190  3.16919593  6.32600993  1
  Mo  Mo6  1  1.55392615  4.71743254  4.71247779  1
  Mo  Mo7  1  4.71533745  4.78852682  4.68371241  1
  Mo  Mo8  1  0.08639334  3.13602191  6.27878586  1
  Mo  Mo9  1  4.75697129  1.63983503  4.71019404  1
  Mo  Mo10  1  -0.09024405  6.34376364  6.44330555  1
  Mo  Mo11  1  3.22507841  0.00952574  3.23506735  1
  Mo  Mo12  1  4.77435761  4.79606321  1.46348947  1
  Mo  Mo13  1  4.84311848  1.51146817  1.64377699  1
  Mo  Mo14  1  3.20914177  0.04089350  6.38934936  1
  Mo  Mo15  1  -0.03840818  6.30698526  3.19149728  1
  Mo  Mo16  1  4.80541667  1.63877259  7.79343143  1
  Mo  Mo17  1  1.61267821  1.55279420  7.96610313  1
  Mo  Mo18  1  1.64169183  1.51163697  11.10311797  1
  Mo  Mo19  1  4.84592849  1.55998306  14.24218820  1
  Mo  Mo20  1  1.62356080  4.71644954  11.09040838  1
  Mo  Mo21  1  3.25274162  3.06242544  9.45637210  1
  Mo  Mo22  1  3.24019090  3.19961951  12.60026800  1
  Mo  Mo23  1  1.60820007  1.55971497  14.29878559  1
  Mo  Mo24  1  1.58434973  4.84753705  14.33909882  1
  Mo  Mo25  1  3.33982218  3.33621782  15.60509317  1
  Mo  Mo26  1  4.83751831  1.44940962  10.98237686  1
  Mo  Mo27  1  4.73139323  4.76045649  7.83826252  1
  Mo  Mo28  1  -0.00562417  3.11288648  12.71276773  1
  Mo  Mo29  1  3.13008415  6.31989344  9.40292231  1
  Mo  Mo30  1  3.13997380  6.38569536  12.60046658  1
  Mo  Mo31  1  -0.01813976  6.37452482  9.48193029  1
  Mo  Mo32  1  1.61124838  4.69670995  7.96471302  1
  Mo  Mo33  1  -0.02425020  9.47756137  3.10928212  1
  Mo  Mo34  1  1.48249428  7.88340143  1.48922639  1
  Mo  Mo35  1  3.13754110  9.59218599  6.40361787  1
  Mo  Mo36  1  3.11245952  6.30640936  6.30767039  1
  Mo  Mo37  1  1.54182225  11.10222433  1.52072234  1
  Mo  Mo38  1  1.55344954  7.92225504  7.91760810  1
  Mo  Mo39  1  4.64404459  10.96182307  4.84207589  1
  Mo  Mo40  1  3.03155503  6.36665083  3.09157806  1
  Mo  Mo41  1  1.59830049  7.93263123  4.79416670  1
  Mo  Mo42  1  3.09123053  9.48957590  3.11041407  1
  Mo  Mo43  1  1.68186605  11.06568426  4.72842435  1
  Mo  Mo44  1  -0.07453063  9.42516410  6.32300133  1
  Mo  Mo45  1  3.31091779  12.57187000  -0.06114634  1
  Mo  Mo46  1  1.58890731  11.13022515  14.14478110  1
  Mo  Mo47  1  1.52139754  7.87438556  11.02388162  1
  Mo  Mo48  1  1.51783290  11.15177187  7.90857237  1
  Mo  Mo49  1  1.64580258  11.04056296  10.98654720  1
  Mo  Mo50  1  4.80090874  10.99081683  14.23950727  1
  Mo  Mo51  1  3.17372372  9.44058440  9.46358082  1
  Mo  Mo52  1  1.54883238  7.98299298  14.26939466  1
  Mo  Mo53  1  3.17164848  9.53000829  15.82592230  1
  Mo  Mo54  1  0.01005835  9.43285936  9.41595957  1
  Mo  Mo55  1  3.09871728  9.45507135  12.68963230  1
  Mo  Mo56  1  -0.00120284  12.76459903  12.68099375  1
  Mo  Mo57  1  3.11281698  6.44098208  15.78431825  1
  Mo  Mo58  1  3.17236339  12.66242584  12.66868134  1
  Mo  Mo59  1  3.27090244  12.64703532  9.45592528  1
  Mo  Mo60  1  -0.02574675  9.55169403  15.80715580  1
  Mo  Mo61  1  7.86714705  4.75919546  7.91558251  1
  Mo  Mo62  1  6.33381441  -0.03191120  6.30125602  1
  Mo  Mo63  1  7.75226427  1.62224019  1.63957687  1
  Mo  Mo64  1  7.87971763  1.62336221  4.74161055  1
  Mo  Mo65  1  6.27543966  6.31215846  6.39064018  1
  Mo  Mo66  1  7.97420549  4.84348586  1.50498429  1
  Mo  Mo67  1  6.31522664  3.30754180  3.09402068  1
  Mo  Mo68  1  8.01096401  4.83118338  4.76368354  1
  Mo  Mo69  1  6.30883212  3.20423666  6.26259106  1
  Mo  Mo70  1  6.33007104  6.41936584  3.17251233  1
  Mo  Mo71  1  9.43926380  3.26813214  3.18523185  1
  Mo  Mo72  1  6.21506911  -0.02359128  3.21427525  1
  Mo  Mo73  1  6.41226634  3.10041520  15.83575238  1
  Mo  Mo74  1  9.49780735  3.15609909  15.85521394  1
  Mo  Mo75  1  7.95918236  4.70806915  14.20961987  1
  Mo  Mo76  1  6.39655809  3.12199171  12.54476283  1
  Mo  Mo77  1  6.44717800  0.01630025  12.64216993  1
  Mo  Mo78  1  7.97772049  1.53913139  11.14482132  1
  Mo  Mo79  1  9.53150762  3.13041182  9.56797819  1
  Mo  Mo80  1  6.30011414  3.13701485  9.49558317  1
  Mo  Mo81  1  7.90109556  4.73122444  11.01861906  1
  Mo  Mo82  1  7.95391979  1.54114705  14.29560819  1
  Mo  Mo83  1  4.83107415  4.83039896  14.19015831  1
  Mo  Mo84  1  4.84371424  4.72332066  10.99717162  1
  Mo  Mo85  1  6.41502671  -0.10342032  15.82681595  1
  Mo  Mo86  1  7.94551955  1.67231399  7.93653347  1
  Mo  Mo87  1  4.73565293  11.09567095  1.62531830  1
  Mo  Mo88  1  4.62949807  7.89930827  7.99482879  1
  Mo  Mo89  1  7.90180054  7.96930038  1.59325637  1
  Mo  Mo90  1  9.59225549  12.79190479  6.43053638  1
  Mo  Mo91  1  4.73351812  7.82329896  4.70030439  1
  Mo  Mo92  1  7.87053296  11.13072161  1.54390741  1
  Mo  Mo93  1  6.27976887  9.48048060  3.05875157  1
  Mo  Mo94  1  9.06565149  12.05494714  3.71036631  1
  Mo  Mo95  1  6.19938071  9.39627957  6.39662759  1
  Mo  Mo96  1  7.55300172  10.78418669  4.92415205  1
  Mo  Mo97  1  4.69355242  7.94888560  1.54510887  1
  Mo  Mo98  1  7.97012452  7.88988530  4.69169562  1
  Mo  Mo99  1  9.55836656  6.30955697  0.04754082  1
  Mo  Mo100  1  6.31245634  6.30985485  -0.02816127  1
  Mo  Mo101  1  6.35196530  6.31634865  9.48756024  1
  Mo  Mo102  1  4.83475795  11.04076154  11.11880637  1
  Mo  Mo103  1  6.34617647  6.29407708  12.67642624  1
  Mo  Mo104  1  4.75793443  7.95696811  14.22610262  1
  Mo  Mo105  1  7.95323467  7.87787077  10.99180976  1
  Mo  Mo106  1  7.93679163  11.05555630  7.83290066  1
  Mo  Mo107  1  6.33210656  9.59664427  9.56678666  1
  Mo  Mo108  1  8.02406084  11.20618481  11.11106147  1
  Mo  Mo109  1  9.48210902  9.39525684  12.58686335  1
  Mo  Mo110  1  9.45404863  6.27001823  12.61595640  1
  Mo  Mo111  1  6.42652492  12.73967631  9.39718314  1
  Mo  Mo112  1  9.46200205  12.85892802  9.45526994  1
  Mo  Mo113  1  7.86353276  11.15643868  14.17397344  1
  Mo  Mo114  1  6.28663999  9.57211873  12.68288033  1
  Mo  Mo115  1  7.88920018  7.95469428  14.22441463  1
  Mo  Mo116  1  4.71309341  7.91309023  11.06488991  1
  Mo  Mo117  1  6.37298577  9.53446657  15.90704524  1
  Mo  Mo118  1  7.81219793  7.93678170  7.83877885  1
  Mo  Mo119  1  9.57961541  12.67046862  15.84826338  1
  Mo  Mo120  1  4.70827767  11.14114745  7.90343889  1
