# generated using pymatgen
data_Mo
_symmetry_space_group_name_H-M   'P 1'
_cell_length_a   25.43643199
_cell_length_b   2.73880610
_cell_length_c   4.47245071
_cell_angle_alpha   90.00000000
_cell_angle_beta   90.00000000
_cell_angle_gamma   90.00000000
_symmetry_Int_Tables_number   1
_chemical_formula_structural   Mo
_chemical_formula_sum   Mo12
_cell_volume   311.57531409
_cell_formula_units_Z   12
loop_
 _symmetry_equiv_pos_site_id
 _symmetry_equiv_pos_as_xyz
  1  'x, y, z'
loop_
 _atom_site_type_symbol
 _atom_site_label
 _atom_site_symmetry_multiplicity
 _atom_site_fract_x
 _atom_site_fract_y
 _atom_site_fract_z
 _atom_site_occupancy
  Mo  Mo0  1  0.14987669  -0.02693017  -0.00775232  1
  Mo  Mo1  1  5.16440210  0.85551805  -0.06218695  1
  Mo  Mo2  1  2.57754260  1.88393422  0.01318105  1
  Mo  Mo3  1  3.86796141  0.04439106  2.19917307  1
  Mo  Mo4  1  1.22173724  0.93468605  2.24337739  1
  Mo  Mo5  1  6.45551314  1.75251299  2.24868114  1
  Mo  Mo6  1  7.75331911  -0.05478422  0.00781032  1
  Mo  Mo7  1  12.90436807  0.99566009  0.05083323  1
  Mo  Mo8  1  10.36636635  1.79096185  -0.00226517  1
  Mo  Mo9  1  11.67329115  -0.03984746  2.29673065  1
  Mo  Mo10  1  8.99505972  0.78898524  2.17981288  1
  Mo  Mo11  1  14.08220202  2.03013570  2.24995883  1
