# generated using pymatgen
data_Mo
_symmetry_space_group_name_H-M   'P 1'
_cell_length_a   25.43643199
_cell_length_b   2.73880610
_cell_length_c   4.47245071
_cell_angle_alpha   90.00000000
_cell_angle_beta   90.00000000
_cell_angle_gamma   90.00000000
_symmetry_Int_Tables_number   1
_chemical_formula_structural   Mo
_chemical_formula_sum   Mo12
_cell_volume   311.57531409
_cell_formula_units_Z   12
loop_
 _symmetry_equiv_pos_site_id
 _symmetry_equiv_pos_as_xyz
  1  'x, y, z'
loop_
 _atom_site_type_symbol
 _atom_site_label
 _atom_site_symmetry_multiplicity
 _atom_site_fract_x
 _atom_site_fract_y
 _atom_site_fract_z
 _atom_site_occupancy
  Mo  Mo0  1  0.15336369  -0.02235489  -0.01284573  1
  Mo  Mo1  1  5.17909257  0.85122998  -0.04494290  1
  Mo  Mo2  1  2.56689585  1.88222707  0.01111406  1
  Mo  Mo3  1  3.86332586  0.03516971  2.19592562  1
  Mo  Mo4  1  1.22677865  0.93522609  2.24484477  1
  Mo  Mo5  1  6.45129609  1.74830053  2.23577710  1
  Mo  Mo6  1  7.74689389  -0.04840528  0.00187323  1
  Mo  Mo7  1  12.90569753  0.99284717  0.05457418  1
  Mo  Mo8  1  10.36114979  1.79939718  -0.00269266  1
  Mo  Mo9  1  11.66155047  -0.03869116  2.29645455  1
  Mo  Mo10  1  9.00815511  0.79766111  2.18896457  1
  Mo  Mo11  1  14.08744009  2.02261592  2.24830732  1
