# generated using pymatgen
data_Mo
_symmetry_space_group_name_H-M   'P 1'
_cell_length_a   25.43643199
_cell_length_b   2.73880610
_cell_length_c   4.47245071
_cell_angle_alpha   90.00000000
_cell_angle_beta   90.00000000
_cell_angle_gamma   90.00000000
_symmetry_Int_Tables_number   1
_chemical_formula_structural   Mo
_chemical_formula_sum   Mo12
_cell_volume   311.57531409
_cell_formula_units_Z   12
loop_
 _symmetry_equiv_pos_site_id
 _symmetry_equiv_pos_as_xyz
  1  'x, y, z'
loop_
 _atom_site_type_symbol
 _atom_site_label
 _atom_site_symmetry_multiplicity
 _atom_site_fract_x
 _atom_site_fract_y
 _atom_site_fract_z
 _atom_site_occupancy
  Mo  Mo0  1  0.15981198  -0.01556434  -0.02005535  1
  Mo  Mo1  1  5.20717465  0.84972033  -0.00586508  1
  Mo  Mo2  1  2.54598325  1.87857778  -0.00006569  1
  Mo  Mo3  1  3.84895717  0.01027502  2.19657062  1
  Mo  Mo4  1  1.24230791  0.93651507  2.24499543  1
  Mo  Mo5  1  6.44432901  1.74138271  2.20549358  1
  Mo  Mo6  1  7.73531658  -0.03913641  -0.01633022  1
  Mo  Mo7  1  12.92184175  0.98557771  0.05855201  1
  Mo  Mo8  1  10.34745769  1.81160557  -0.00014805  1
  Mo  Mo9  1  11.63249306  -0.03073442  2.28648959  1
  Mo  Mo10  1  9.03713034  0.82632017  2.21826147  1
  Mo  Mo11  1  14.08883619  2.00068422  2.24945582  1
