# generated using pymatgen
data_Mo
_symmetry_space_group_name_H-M   'P 1'
_cell_length_a   25.43643199
_cell_length_b   2.73880610
_cell_length_c   4.47245071
_cell_angle_alpha   90.00000000
_cell_angle_beta   90.00000000
_cell_angle_gamma   90.00000000
_symmetry_Int_Tables_number   1
_chemical_formula_structural   Mo
_chemical_formula_sum   Mo12
_cell_volume   311.57531409
_cell_formula_units_Z   12
loop_
 _symmetry_equiv_pos_site_id
 _symmetry_equiv_pos_as_xyz
  1  'x, y, z'
loop_
 _atom_site_type_symbol
 _atom_site_label
 _atom_site_symmetry_multiplicity
 _atom_site_fract_x
 _atom_site_fract_y
 _atom_site_fract_z
 _atom_site_occupancy
  Mo  Mo0  1  0.16187039  -0.01352288  -0.02195839  1
  Mo  Mo1  1  5.21713656  0.85178448  0.01143452  1
  Mo  Mo2  1  2.53847354  1.87654476  -0.00814995  1
  Mo  Mo3  1  3.84087187  -0.00407490  2.20117194  1
  Mo  Mo4  1  1.25131559  0.93700367  2.24311305  1
  Mo  Mo5  1  6.44270377  1.73929902  2.19173514  1
  Mo  Mo6  1  7.73206065  -0.03612033  -0.02682828  1
  Mo  Mo7  1  12.93473047  0.98139110  0.05818179  1
  Mo  Mo8  1  10.34021322  1.81531472  0.00311872  1
  Mo  Mo9  1  11.61847768  -0.02453636  2.27796884  1
  Mo  Mo10  1  9.04957347  0.84526122  2.23526473  1
  Mo  Mo11  1  14.08421238  1.98687889  2.25230196  1
