# generated using pymatgen
data_Mo
_symmetry_space_group_name_H-M   'P 1'
_cell_length_a   25.43643199
_cell_length_b   2.73880610
_cell_length_c   4.47245071
_cell_angle_alpha   90.00000000
_cell_angle_beta   90.00000000
_cell_angle_gamma   90.00000000
_symmetry_Int_Tables_number   1
_chemical_formula_structural   Mo
_chemical_formula_sum   Mo12
_cell_volume   311.57531409
_cell_formula_units_Z   12
loop_
 _symmetry_equiv_pos_site_id
 _symmetry_equiv_pos_as_xyz
  1  'x, y, z'
loop_
 _atom_site_type_symbol
 _atom_site_label
 _atom_site_symmetry_multiplicity
 _atom_site_fract_x
 _atom_site_fract_y
 _atom_site_fract_z
 _atom_site_occupancy
  Mo  Mo0  1  0.16277219  -0.01244245  -0.02276201  1
  Mo  Mo1  1  5.22254751  0.85508517  0.02459910  1
  Mo  Mo2  1  2.53436577  1.87426608  -0.01685130  1
  Mo  Mo3  1  3.83342812  -0.01863210  2.20846494  1
  Mo  Mo4  1  1.25997820  0.93713073  2.23966605  1
  Mo  Mo5  1  6.44285799  1.73851918  2.18116335  1
  Mo  Mo6  1  7.73134684  -0.03389336  -0.03683944  1
  Mo  Mo7  1  12.94907601  0.97696416  0.05594867  1
  Mo  Mo8  1  10.33371705  1.81768999  0.00770424  1
  Mo  Mo9  1  11.60685143  -0.01737521  2.26821105  1
  Mo  Mo10  1  9.05862357  0.86624582  2.25150527  1
  Mo  Mo11  1  14.07607491  1.97166541  2.25654418  1
