# generated using pymatgen
data_Mo
_symmetry_space_group_name_H-M   'P 1'
_cell_length_a   25.43643199
_cell_length_b   2.73880610
_cell_length_c   4.47245071
_cell_angle_alpha   90.00000000
_cell_angle_beta   90.00000000
_cell_angle_gamma   90.00000000
_symmetry_Int_Tables_number   1
_chemical_formula_structural   Mo
_chemical_formula_sum   Mo12
_cell_volume   311.57531409
_cell_formula_units_Z   12
loop_
 _symmetry_equiv_pos_site_id
 _symmetry_equiv_pos_as_xyz
  1  'x, y, z'
loop_
 _atom_site_type_symbol
 _atom_site_label
 _atom_site_symmetry_multiplicity
 _atom_site_fract_x
 _atom_site_fract_y
 _atom_site_fract_z
 _atom_site_occupancy
  Mo  Mo0  1  0.16120721  -0.01318978  -0.02178888  1
  Mo  Mo1  1  5.21746553  0.86335543  0.03390553  1
  Mo  Mo2  1  2.53807801  1.86849839  -0.03230904  1
  Mo  Mo3  1  3.82409483  -0.04497335  2.22840557  1
  Mo  Mo4  1  1.27288149  0.93540515  2.22802197  1
  Mo  Mo5  1  6.44871005  1.74172548  2.17394715  1
  Mo  Mo6  1  7.73766092  -0.03037563  -0.05098497  1
  Mo  Mo7  1  12.97627136  0.96744258  0.04589841  1
  Mo  Mo8  1  10.32594165  1.82014881  0.01977783  1
  Mo  Mo9  1  11.59504806  -0.00188829  2.24887185  1
  Mo  Mo10  1  9.06290927  0.91028997  2.27540491  1
  Mo  Mo11  1  14.05137121  1.93878467  2.26820378  1
