# generated using pymatgen
data_Mo
_symmetry_space_group_name_H-M   'P 1'
_cell_length_a   25.43643199
_cell_length_b   2.73880610
_cell_length_c   4.47245071
_cell_angle_alpha   90.00000000
_cell_angle_beta   90.00000000
_cell_angle_gamma   90.00000000
_symmetry_Int_Tables_number   1
_chemical_formula_structural   Mo
_chemical_formula_sum   Mo12
_cell_volume   311.57531409
_cell_formula_units_Z   12
loop_
 _symmetry_equiv_pos_site_id
 _symmetry_equiv_pos_as_xyz
  1  'x, y, z'
loop_
 _atom_site_type_symbol
 _atom_site_label
 _atom_site_symmetry_multiplicity
 _atom_site_fract_x
 _atom_site_fract_y
 _atom_site_fract_z
 _atom_site_occupancy
  Mo  Mo0  1  0.15928882  -0.01499751  -0.02056765  1
  Mo  Mo1  1  5.20757924  0.86745279  0.02961030  1
  Mo  Mo2  1  2.54546697  1.86473692  -0.03726923  1
  Mo  Mo3  1  3.82367223  -0.05517721  2.23900804  1
  Mo  Mo4  1  1.27586983  0.93315827  2.22019868  1
  Mo  Mo5  1  6.45375919  1.74594016  2.17793841  1
  Mo  Mo6  1  7.74371373  -0.02823789  -0.05316832  1
  Mo  Mo7  1  12.98637057  0.96223568  0.03856645  1
  Mo  Mo8  1  10.32577295  1.82127973  0.02629030  1
  Mo  Mo9  1  11.59575893  0.00556356  2.24113043  1
  Mo  Mo10  1  9.05778682  0.93114051  2.28080577  1
  Mo  Mo11  1  14.03660031  1.92212838  2.27481093  1
