# generated using pymatgen
data_Mo
_symmetry_space_group_name_H-M   'P 1'
_cell_length_a   25.43643199
_cell_length_b   2.73880610
_cell_length_c   4.47245071
_cell_angle_alpha   90.00000000
_cell_angle_beta   90.00000000
_cell_angle_gamma   90.00000000
_symmetry_Int_Tables_number   1
_chemical_formula_structural   Mo
_chemical_formula_sum   Mo12
_cell_volume   311.57531409
_cell_formula_units_Z   12
loop_
 _symmetry_equiv_pos_site_id
 _symmetry_equiv_pos_as_xyz
  1  'x, y, z'
loop_
 _atom_site_type_symbol
 _atom_site_label
 _atom_site_symmetry_multiplicity
 _atom_site_fract_x
 _atom_site_fract_y
 _atom_site_fract_z
 _atom_site_occupancy
  Mo  Mo0  1  0.15718959  -0.01774203  -0.01930566  1
  Mo  Mo1  1  5.19429212  0.87111092  0.02030540  1
  Mo  Mo2  1  2.55547248  1.86022402  -0.03948772  1
  Mo  Mo3  1  3.82661656  -0.06254657  2.24844036  1
  Mo  Mo4  1  1.27619488  0.92981573  2.21157366  1
  Mo  Mo5  1  6.45935620  1.75191057  2.18637368  1
  Mo  Mo6  1  7.75058231  -0.02527146  -0.05117154  1
  Mo  Mo7  1  12.99263892  0.95659787  0.03034371  1
  Mo  Mo8  1  10.32841543  1.82302752  0.03223892  1
  Mo  Mo9  1  11.60050381  0.01224892  2.23566142  1
  Mo  Mo10  1  9.04859845  0.94978861  2.28116888  1
  Mo  Mo11  1  14.02177884  1.90605931  2.28121299  1
