# generated using pymatgen
data_Mo
_symmetry_space_group_name_H-M   'P 1'
_cell_length_a   25.43643199
_cell_length_b   2.73880610
_cell_length_c   4.47245071
_cell_angle_alpha   90.00000000
_cell_angle_beta   90.00000000
_cell_angle_gamma   90.00000000
_symmetry_Int_Tables_number   1
_chemical_formula_structural   Mo
_chemical_formula_sum   Mo12
_cell_volume   311.57531409
_cell_formula_units_Z   12
loop_
 _symmetry_equiv_pos_site_id
 _symmetry_equiv_pos_as_xyz
  1  'x, y, z'
loop_
 _atom_site_type_symbol
 _atom_site_label
 _atom_site_symmetry_multiplicity
 _atom_site_fract_x
 _atom_site_fract_y
 _atom_site_fract_z
 _atom_site_occupancy
  Mo  Mo0  1  0.15542251  -0.02141595  -0.01835368  1
  Mo  Mo1  1  5.17931073  0.87415937  0.00745836  1
  Mo  Mo2  1  2.56688980  1.85488922  -0.03867285  1
  Mo  Mo3  1  3.83285073  -0.06666079  2.25553485  1
  Mo  Mo4  1  1.27403829  0.92534134  2.20273273  1
  Mo  Mo5  1  6.46466668  1.75956262  2.19818763  1
  Mo  Mo6  1  7.75731400  -0.02109720  -0.04474878  1
  Mo  Mo7  1  12.99432590  0.95043032  0.02191326  1
  Mo  Mo8  1  10.33374366  1.82579082  0.03689878  1
  Mo  Mo9  1  11.60831241  0.01775813  2.23291940  1
  Mo  Mo10  1  9.03655893  0.96533961  2.27670427  1
  Mo  Mo11  1  14.00820594  1.89112591  2.28678014  1
