# generated using pymatgen
data_Mo
_symmetry_space_group_name_H-M   'P 1'
_cell_length_a   25.43643199
_cell_length_b   2.73880610
_cell_length_c   4.47245071
_cell_angle_alpha   90.00000000
_cell_angle_beta   90.00000000
_cell_angle_gamma   90.00000000
_symmetry_Int_Tables_number   1
_chemical_formula_structural   Mo
_chemical_formula_sum   Mo12
_cell_volume   311.57531409
_cell_formula_units_Z   12
loop_
 _symmetry_equiv_pos_site_id
 _symmetry_equiv_pos_as_xyz
  1  'x, y, z'
loop_
 _atom_site_type_symbol
 _atom_site_label
 _atom_site_symmetry_multiplicity
 _atom_site_fract_x
 _atom_site_fract_y
 _atom_site_fract_z
 _atom_site_occupancy
  Mo  Mo0  1  0.15442417  -0.02602750  -0.01803598  1
  Mo  Mo1  1  5.16454927  0.87653757  -0.00710330  1
  Mo  Mo2  1  2.57836579  1.84875125  -0.03491573  1
  Mo  Mo3  1  3.84188019  -0.06731968  2.25931041  1
  Mo  Mo4  1  1.26988065  0.91977328  2.19435661  1
  Mo  Mo5  1  6.46887344  1.76876792  2.21206668  1
  Mo  Mo6  1  7.76304278  -0.01542500  -0.03411277  1
  Mo  Mo7  1  12.99109476  0.94368818  0.01403648  1
  Mo  Mo8  1  10.34131042  1.82981507  0.03961293  1
  Mo  Mo9  1  11.61782577  0.02170411  2.23307033  1
  Mo  Mo10  1  9.02318690  0.97712959  2.26817966  1
  Mo  Mo11  1  13.99720546  1.87782864  2.29088877  1
