# generated using pymatgen
data_Mo
_symmetry_space_group_name_H-M   'P 1'
_cell_length_a   25.43643199
_cell_length_b   2.73880610
_cell_length_c   4.47245071
_cell_angle_alpha   90.00000000
_cell_angle_beta   90.00000000
_cell_angle_gamma   90.00000000
_symmetry_Int_Tables_number   1
_chemical_formula_structural   Mo
_chemical_formula_sum   Mo12
_cell_volume   311.57531409
_cell_formula_units_Z   12
loop_
 _symmetry_equiv_pos_site_id
 _symmetry_equiv_pos_as_xyz
  1  'x, y, z'
loop_
 _atom_site_type_symbol
 _atom_site_label
 _atom_site_symmetry_multiplicity
 _atom_site_fract_x
 _atom_site_fract_y
 _atom_site_fract_z
 _atom_site_occupancy
  Mo  Mo0  1  0.15451629  -0.03159642  -0.01861846  1
  Mo  Mo1  1  5.15188721  0.87829293  -0.02142919  1
  Mo  Mo2  1  2.58858501  1.84193626  -0.02870144  1
  Mo  Mo3  1  3.85281865  -0.06456106  2.25910953  1
  Mo  Mo4  1  1.26442882  0.91321434  2.18714901  1
  Mo  Mo5  1  6.47131536  1.77934256  2.22664418  1
  Mo  Mo6  1  7.76709305  -0.00808826  -0.01996404  1
  Mo  Mo7  1  12.98306094  0.93642025  0.00746436  1
  Mo  Mo8  1  10.35038882  1.83516240  0.03989616  1
  Mo  Mo9  1  11.62749502  0.02374168  2.23596762  1
  Mo  Mo10  1  9.01010560  0.98477958  2.25683374  1
  Mo  Mo11  1  13.98994484  1.86657915  2.29300264  1
