# generated using pymatgen
data_Mo
_symmetry_space_group_name_H-M   'P 1'
_cell_length_a   25.43643199
_cell_length_b   2.73880610
_cell_length_c   4.47245071
_cell_angle_alpha   90.00000000
_cell_angle_beta   90.00000000
_cell_angle_gamma   90.00000000
_symmetry_Int_Tables_number   1
_chemical_formula_structural   Mo
_chemical_formula_sum   Mo12
_cell_volume   311.57531409
_cell_formula_units_Z   12
loop_
 _symmetry_equiv_pos_site_id
 _symmetry_equiv_pos_as_xyz
  1  'x, y, z'
loop_
 _atom_site_type_symbol
 _atom_site_label
 _atom_site_symmetry_multiplicity
 _atom_site_fract_x
 _atom_site_fract_y
 _atom_site_fract_z
 _atom_site_occupancy
  Mo  Mo0  1  0.15588270  -0.03815781  -0.02028332  1
  Mo  Mo1  1  5.14293721  0.87958294  -0.03368120  1
  Mo  Mo2  1  2.59645653  1.83468188  -0.02086196  1
  Mo  Mo3  1  3.86450631  -0.05865512  2.25470825  1
  Mo  Mo4  1  1.25852354  0.90581530  2.18176063  1
  Mo  Mo5  1  6.47159439  1.79104216  2.24065848  1
  Mo  Mo6  1  7.76903052  0.00093879  -0.00344892  1
  Mo  Mo7  1  12.97079716  0.92878855  0.00283464  1
  Mo  Mo8  1  10.36003211  1.84170789  0.03752014  1
  Mo  Mo9  1  11.63580399  0.02359663  2.24115989  1
  Mo  Mo10  1  8.99884003  0.98822412  2.24422739  1
  Mo  Mo11  1  13.98723510  1.85765809  2.29276010  1
