# generated using pymatgen
data_Mo
_symmetry_space_group_name_H-M   'P 1'
_cell_length_a   25.43643199
_cell_length_b   2.73880610
_cell_length_c   4.47245071
_cell_angle_alpha   90.00000000
_cell_angle_beta   90.00000000
_cell_angle_gamma   90.00000000
_symmetry_Int_Tables_number   1
_chemical_formula_structural   Mo
_chemical_formula_sum   Mo12
_cell_volume   311.57531409
_cell_formula_units_Z   12
loop_
 _symmetry_equiv_pos_site_id
 _symmetry_equiv_pos_as_xyz
  1  'x, y, z'
loop_
 _atom_site_type_symbol
 _atom_site_label
 _atom_site_symmetry_multiplicity
 _atom_site_fract_x
 _atom_site_fract_y
 _atom_site_fract_z
 _atom_site_occupancy
  Mo  Mo0  1  0.15854920  -0.04575360  -0.02310610  1
  Mo  Mo1  1  5.13884624  0.88067488  -0.04234743  1
  Mo  Mo2  1  2.60123665  1.82731840  -0.01247820  1
  Mo  Mo3  1  3.87566595  -0.05006937  2.24638416  1
  Mo  Mo4  1  1.25300983  0.89775892  2.17871383  1
  Mo  Mo5  1  6.46963400  1.80354777  2.25305934  1
  Mo  Mo6  1  7.76866195  0.01153624  0.01395199  1
  Mo  Mo7  1  12.95535715  0.92107973  0.00058537  1
  Mo  Mo8  1  10.36914087  1.84914347  0.03256164  1
  Mo  Mo9  1  11.64152112  0.02109904  2.24793352  1
  Mo  Mo10  1  8.99063859  0.98770244  2.23205745  1
  Mo  Mo11  1  13.98937800  1.85118550  2.29003855  1
