# generated using pymatgen
data_Mo
_symmetry_space_group_name_H-M   'P 1'
_cell_length_a   25.43643199
_cell_length_b   2.73880610
_cell_length_c   4.47245071
_cell_angle_alpha   90.00000000
_cell_angle_beta   90.00000000
_cell_angle_gamma   90.00000000
_symmetry_Int_Tables_number   1
_chemical_formula_structural   Mo
_chemical_formula_sum   Mo12
_cell_volume   311.57531409
_cell_formula_units_Z   12
loop_
 _symmetry_equiv_pos_site_id
 _symmetry_equiv_pos_as_xyz
  1  'x, y, z'
loop_
 _atom_site_type_symbol
 _atom_site_label
 _atom_site_symmetry_multiplicity
 _atom_site_fract_x
 _atom_site_fract_y
 _atom_site_fract_z
 _atom_site_occupancy
  Mo  Mo0  1  0.16240008  -0.05442635  -0.02704043  1
  Mo  Mo1  1  5.14014204  0.88193533  -0.04641742  1
  Mo  Mo2  1  2.60262120  1.82023490  -0.00474872  1
  Mo  Mo3  1  3.88508127  -0.03941637  2.23492353  1
  Mo  Mo4  1  1.24864419  0.88924338  2.17834069  1
  Mo  Mo5  1  6.46568179  1.81646851  2.26307604  1
  Mo  Mo6  1  7.76602294  0.02344192  0.03060233  1
  Mo  Mo7  1  12.93821856  0.91367955  0.00090052  1
  Mo  Mo8  1  10.37653816  1.85699946  0.02540939  1
  Mo  Mo9  1  11.64387652  0.01621722  2.25538641  1
  Mo  Mo10  1  8.98633833  0.98372865  2.22194946  1
  Mo  Mo11  1  13.99607448  1.84711722  2.28497229  1
