# generated using pymatgen
data_Mo
_symmetry_space_group_name_H-M   'P 1'
_cell_length_a   25.43643199
_cell_length_b   2.73880610
_cell_length_c   4.47245071
_cell_angle_alpha   90.00000000
_cell_angle_beta   90.00000000
_cell_angle_gamma   90.00000000
_symmetry_Int_Tables_number   1
_chemical_formula_structural   Mo
_chemical_formula_sum   Mo12
_cell_volume   311.57531409
_cell_formula_units_Z   12
loop_
 _symmetry_equiv_pos_site_id
 _symmetry_equiv_pos_as_xyz
  1  'x, y, z'
loop_
 _atom_site_type_symbol
 _atom_site_label
 _atom_site_symmetry_multiplicity
 _atom_site_fract_x
 _atom_site_fract_y
 _atom_site_fract_z
 _atom_site_occupancy
  Mo  Mo0  1  0.16720196  -0.06420552  -0.03191037  1
  Mo  Mo1  1  5.14667431  0.88381246  -0.04548582  1
  Mo  Mo2  1  2.60075430  1.81383352  0.00115856  1
  Mo  Mo3  1  3.89174052  -0.02740500  2.22155329  1
  Mo  Mo4  1  1.24602794  0.88047815  2.18073291  1
  Mo  Mo5  1  6.46028395  1.82936218  2.27024461  1
  Mo  Mo6  1  7.76137949  0.03624874  0.04491774  1
  Mo  Mo7  1  12.92112347  0.90702129  0.00369851  1
  Mo  Mo8  1  10.38109322  1.86467631  0.01672928  1
  Mo  Mo9  1  11.64265518  0.00909107  2.26252668  1
  Mo  Mo10  1  8.98629277  0.97704327  2.21526127  1
  Mo  Mo11  1  14.00641246  1.84526694  2.27792745  1
