# generated using pymatgen
data_Mo
_symmetry_space_group_name_H-M   'P 1'
_cell_length_a   25.43643199
_cell_length_b   2.73880610
_cell_length_c   4.47245071
_cell_angle_alpha   90.00000000
_cell_angle_beta   90.00000000
_cell_angle_gamma   90.00000000
_symmetry_Int_Tables_number   1
_chemical_formula_structural   Mo
_chemical_formula_sum   Mo12
_cell_volume   311.57531409
_cell_formula_units_Z   12
loop_
 _symmetry_equiv_pos_site_id
 _symmetry_equiv_pos_as_xyz
  1  'x, y, z'
loop_
 _atom_site_type_symbol
 _atom_site_label
 _atom_site_symmetry_multiplicity
 _atom_site_fract_x
 _atom_site_fract_y
 _atom_site_fract_z
 _atom_site_occupancy
  Mo  Mo0  1  0.17260307  -0.07509656  -0.03741747  1
  Mo  Mo1  1  5.15766548  0.88678609  -0.03977083  1
  Mo  Mo2  1  2.59620357  1.80848665  0.00425044  1
  Mo  Mo3  1  3.89497557  -0.01475977  2.20779218  1
  Mo  Mo4  1  1.24555643  0.87166568  2.18571760  1
  Mo  Mo5  1  6.45418358  1.84177685  2.27441557  1
  Mo  Mo6  1  7.75521269  0.04943166  0.05557733  1
  Mo  Mo7  1  12.90583567  0.90151276  0.00865525  1
  Mo  Mo8  1  10.38185161  1.87149494  0.00739002  1
  Mo  Mo9  1  11.63819255  0.00004518  2.26839407  1
  Mo  Mo10  1  8.99034662  0.96853758  2.21291624  1
  Mo  Mo11  1  14.01901276  1.84534235  2.26943370  1
