# generated using pymatgen
data_Mo
_symmetry_space_group_name_H-M   'P 1'
_cell_length_a   25.43643199
_cell_length_b   2.73880610
_cell_length_c   4.47245071
_cell_angle_alpha   90.00000000
_cell_angle_beta   90.00000000
_cell_angle_gamma   90.00000000
_symmetry_Int_Tables_number   1
_chemical_formula_structural   Mo
_chemical_formula_sum   Mo12
_cell_volume   311.57531409
_cell_formula_units_Z   12
loop_
 _symmetry_equiv_pos_site_id
 _symmetry_equiv_pos_as_xyz
  1  'x, y, z'
loop_
 _atom_site_type_symbol
 _atom_site_label
 _atom_site_symmetry_multiplicity
 _atom_site_fract_x
 _atom_site_fract_y
 _atom_site_fract_z
 _atom_site_occupancy
  Mo  Mo0  1  0.17818406  -0.08706423  -0.04315549  1
  Mo  Mo1  1  5.17180599  0.89131963  -0.03004666  1
  Mo  Mo2  1  2.58985364  1.80450418  0.00383848  1
  Mo  Mo3  1  3.89447713  -0.00217857  2.19525463  1
  Mo  Mo4  1  1.24740300  0.86300351  2.19284787  1
  Mo  Mo5  1  6.44819987  1.85329574  2.27572924  1
  Mo  Mo6  1  7.74819254  0.06236780  0.06168740  1
  Mo  Mo7  1  12.89391647  0.89747812  0.01524084  1
  Mo  Mo8  1  10.37817247  1.87675215  -0.00162495  1
  Mo  Mo9  1  11.63129831  -0.01041969  2.27218201  1
  Mo  Mo10  1  8.99784306  0.95917725  2.21529375  1
  Mo  Mo11  1  14.03229305  1.84698751  2.26010702  1
