# generated using pymatgen
data_Mo
_symmetry_space_group_name_H-M   'P 1'
_cell_length_a   25.43643199
_cell_length_b   2.73880610
_cell_length_c   4.47245071
_cell_angle_alpha   90.00000000
_cell_angle_beta   90.00000000
_cell_angle_gamma   90.00000000
_symmetry_Int_Tables_number   1
_chemical_formula_structural   Mo
_chemical_formula_sum   Mo12
_cell_volume   311.57531409
_cell_formula_units_Z   12
loop_
 _symmetry_equiv_pos_site_id
 _symmetry_equiv_pos_as_xyz
  1  'x, y, z'
loop_
 _atom_site_type_symbol
 _atom_site_label
 _atom_site_symmetry_multiplicity
 _atom_site_fract_x
 _atom_site_fract_y
 _atom_site_fract_z
 _atom_site_occupancy
  Mo  Mo0  1  0.18346813  -0.10002019  -0.04864712  1
  Mo  Mo1  1  5.18745729  0.89780268  -0.01750870  1
  Mo  Mo2  1  2.58279344  1.80210388  -0.00035592  1
  Mo  Mo3  1  3.89032617  0.00972067  2.18541840  1
  Mo  Mo4  1  1.25151101  0.85467167  2.20142384  1
  Mo  Mo5  1  6.44312349  1.86358516  2.27457765  1
  Mo  Mo6  1  7.74115256  0.07439393  0.06289122  1
  Mo  Mo7  1  12.88646187  0.89510311  0.02277174  1
  Mo  Mo8  1  10.36988570  1.87979776  -0.00932448  1
  Mo  Mo9  1  11.62307150  -0.02167162  2.27335644  1
  Mo  Mo10  1  9.00772248  0.94990503  2.22217772  1
  Mo  Mo11  1  14.04466593  1.84983132  2.25057331  1
