# generated using pymatgen
data_Mo
_symmetry_space_group_name_H-M   'P 1'
_cell_length_a   25.43643199
_cell_length_b   2.73880610
_cell_length_c   4.47245071
_cell_angle_alpha   90.00000000
_cell_angle_beta   90.00000000
_cell_angle_gamma   90.00000000
_symmetry_Int_Tables_number   1
_chemical_formula_structural   Mo
_chemical_formula_sum   Mo12
_cell_volume   311.57531409
_cell_formula_units_Z   12
loop_
 _symmetry_equiv_pos_site_id
 _symmetry_equiv_pos_as_xyz
  1  'x, y, z'
loop_
 _atom_site_type_symbol
 _atom_site_label
 _atom_site_symmetry_multiplicity
 _atom_site_fract_x
 _atom_site_fract_y
 _atom_site_fract_z
 _atom_site_occupancy
  Mo  Mo0  1  0.18796567  -0.11380633  -0.05339026  1
  Mo  Mo1  1  5.20285068  0.90650055  -0.00360126  1
  Mo  Mo2  1  2.57618434  1.80139476  -0.00813516  1
  Mo  Mo3  1  3.88296811  0.02042812  2.17942751  1
  Mo  Mo4  1  1.25758736  0.84682895  2.21053697  1
  Mo  Mo5  1  6.43960695  1.87241746  2.27154037  1
  Mo  Mo6  1  7.73498858  0.08485980  0.05938427  1
  Mo  Mo7  1  12.88397864  0.89441917  0.03045710  1
  Mo  Mo8  1  10.35739758  1.88011161  -0.01480371  1
  Mo  Mo9  1  11.61472165  -0.03301326  2.27173434  1
  Mo  Mo10  1  9.01863861  0.94156384  2.23278589  1
  Mo  Mo11  1  14.05475142  1.85351873  2.24141805  1
