# generated using pymatgen
data_Mo
_symmetry_space_group_name_H-M   'P 1'
_cell_length_a   25.43643199
_cell_length_b   2.73880610
_cell_length_c   4.47245071
_cell_angle_alpha   90.00000000
_cell_angle_beta   90.00000000
_cell_angle_gamma   90.00000000
_symmetry_Int_Tables_number   1
_chemical_formula_structural   Mo
_chemical_formula_sum   Mo12
_cell_volume   311.57531409
_cell_formula_units_Z   12
loop_
 _symmetry_equiv_pos_site_id
 _symmetry_equiv_pos_as_xyz
  1  'x, y, z'
loop_
 _atom_site_type_symbol
 _atom_site_label
 _atom_site_symmetry_multiplicity
 _atom_site_fract_x
 _atom_site_fract_y
 _atom_site_fract_z
 _atom_site_occupancy
  Mo  Mo0  1  0.19125201  -0.12818862  -0.05691454  1
  Mo  Mo1  1  5.21628054  0.91750391  0.01017763  1
  Mo  Mo2  1  2.57113727  1.80236932  -0.01881070  1
  Mo  Mo3  1  3.87314348  0.02956745  2.17794217  1
  Mo  Mo4  1  1.26513232  0.83960536  2.21914424  1
  Mo  Mo5  1  6.43809015  1.87968845  2.26729695  1
  Mo  Mo6  1  7.73052229  0.09319843  0.05185878  1
  Mo  Mo7  1  12.88636808  0.89531005  0.03745328  1
  Mo  Mo8  1  10.34169588  1.87737808  -0.01733251  1
  Mo  Mo9  1  11.60739265  -0.04376329  2.26751079  1
  Mo  Mo10  1  9.02910926  0.93481763  2.24586977  1
  Mo  Mo11  1  14.06151566  1.85773664  2.23315823  1
