# generated using pymatgen
data_Mo
_symmetry_space_group_name_H-M   'P 1'
_cell_length_a   25.43643199
_cell_length_b   2.73880610
_cell_length_c   4.47245071
_cell_angle_alpha   90.00000000
_cell_angle_beta   90.00000000
_cell_angle_gamma   90.00000000
_symmetry_Int_Tables_number   1
_chemical_formula_structural   Mo
_chemical_formula_sum   Mo12
_cell_volume   311.57531409
_cell_formula_units_Z   12
loop_
 _symmetry_equiv_pos_site_id
 _symmetry_equiv_pos_as_xyz
  1  'x, y, z'
loop_
 _atom_site_type_symbol
 _atom_site_label
 _atom_site_symmetry_multiplicity
 _atom_site_fract_x
 _atom_site_fract_y
 _atom_site_fract_z
 _atom_site_occupancy
  Mo  Mo0  1  0.19302391  -0.14285410  -0.05884075  1
  Mo  Mo1  1  5.22630497  0.93069996  0.02244842  1
  Mo  Mo2  1  2.56856548  1.80490402  -0.03124933  1
  Mo  Mo3  1  3.86184990  0.03690367  2.18106826  1
  Mo  Mo4  1  1.27344119  0.83310303  2.22616804  1
  Mo  Mo5  1  6.43876371  1.88539771  2.26253161  1
  Mo  Mo6  1  7.72834528  0.09897326  0.04139569  1
  Mo  Mo7  1  12.89300453  0.89754294  0.04292103  1
  Mo  Mo8  1  10.32428526  1.87153156  -0.01642874  1
  Mo  Mo9  1  11.60200604  -0.05332277  2.26123078  1
  Mo  Mo10  1  9.03770617  0.93011777  2.25987619  1
  Mo  Mo11  1  14.06434315  1.86222635  2.22623290  1
