# generated using pymatgen
data_Mo
_symmetry_space_group_name_H-M   'P 1'
_cell_length_a   25.43643199
_cell_length_b   2.73880610
_cell_length_c   4.47245071
_cell_angle_alpha   90.00000000
_cell_angle_beta   90.00000000
_cell_angle_gamma   90.00000000
_symmetry_Int_Tables_number   1
_chemical_formula_structural   Mo
_chemical_formula_sum   Mo12
_cell_volume   311.57531409
_cell_formula_units_Z   12
loop_
 _symmetry_equiv_pos_site_id
 _symmetry_equiv_pos_as_xyz
  1  'x, y, z'
loop_
 _atom_site_type_symbol
 _atom_site_label
 _atom_site_symmetry_multiplicity
 _atom_site_fract_x
 _atom_site_fract_y
 _atom_site_fract_z
 _atom_site_occupancy
  Mo  Mo0  1  0.19316616  -0.15742974  -0.05893097  1
  Mo  Mo1  1  5.23190975  0.94575397  0.03209638  1
  Mo  Mo2  1  2.56905806  1.80877652  -0.04398651  1
  Mo  Mo3  1  3.85027129  0.04234922  2.18836274  1
  Mo  Mo4  1  1.28165541  0.82739571  2.23062156  1
  Mo  Mo5  1  6.44155157  1.88963162  2.25783964  1
  Mo  Mo6  1  7.72867533  0.10192062  0.02932748  1
  Mo  Mo7  1  12.90288346  0.90080516  0.04609501  1
  Mo  Mo8  1  10.30701378  1.86277629  -0.01192505  1
  Mo  Mo9  1  11.59916077  -0.06122371  2.25370636  1
  Mo  Mo10  1  9.04323715  0.92767785  2.27315036  1
  Mo  Mo11  1  14.06305686  1.86678990  2.22099709  1
