# generated using pymatgen
data_Mo
_symmetry_space_group_name_H-M   'P 1'
_cell_length_a   25.43643199
_cell_length_b   2.73880610
_cell_length_c   4.47245071
_cell_angle_alpha   90.00000000
_cell_angle_beta   90.00000000
_cell_angle_gamma   90.00000000
_symmetry_Int_Tables_number   1
_chemical_formula_structural   Mo
_chemical_formula_sum   Mo12
_cell_volume   311.57531409
_cell_formula_units_Z   12
loop_
 _symmetry_equiv_pos_site_id
 _symmetry_equiv_pos_as_xyz
  1  'x, y, z'
loop_
 _atom_site_type_symbol
 _atom_site_label
 _atom_site_symmetry_multiplicity
 _atom_site_fract_x
 _atom_site_fract_y
 _atom_site_fract_z
 _atom_site_occupancy
  Mo  Mo0  1  0.19180902  -0.17150535  -0.05712414  1
  Mo  Mo1  1  5.23262445  0.96210527  0.03836518  1
  Mo  Mo2  1  2.57278532  1.81368710  -0.05539293  1
  Mo  Mo3  1  3.83967877  0.04595880  2.19890913  1
  Mo  Mo4  1  1.28886016  0.82253666  2.23174151  1
  Mo  Mo5  1  6.44612202  1.89254172  2.25365810  1
  Mo  Mo6  1  7.73128522  0.10196863  0.01709255  1
  Mo  Mo7  1  12.91477407  0.90473757  0.04635847  1
  Mo  Mo8  1  10.29183978  1.85157713  -0.00401922  1
  Mo  Mo9  1  11.59908193  -0.06714259  2.24590337  1
  Mo  Mo10  1  9.04490223  0.92746942  2.28415101  1
  Mo  Mo11  1  14.05787660  1.87128905  2.21771107  1
