# generated using pymatgen
data_Mo
_symmetry_space_group_name_H-M   'P 1'
_cell_length_a   25.43643199
_cell_length_b   2.73880610
_cell_length_c   4.47245071
_cell_angle_alpha   90.00000000
_cell_angle_beta   90.00000000
_cell_angle_gamma   90.00000000
_symmetry_Int_Tables_number   1
_chemical_formula_structural   Mo
_chemical_formula_sum   Mo12
_cell_volume   311.57531409
_cell_formula_units_Z   12
loop_
 _symmetry_equiv_pos_site_id
 _symmetry_equiv_pos_as_xyz
  1  'x, y, z'
loop_
 _atom_site_type_symbol
 _atom_site_label
 _atom_site_symmetry_multiplicity
 _atom_site_fract_x
 _atom_site_fract_y
 _atom_site_fract_z
 _atom_site_occupancy
  Mo  Mo0  1  0.18928135  -0.18467120  -0.05354547  1
  Mo  Mo1  1  5.22857495  0.97901396  0.04090205  1
  Mo  Mo2  1  2.57943570  1.81929771  -0.06389855  1
  Mo  Mo3  1  3.83131465  0.04791936  2.21145732  1
  Mo  Mo4  1  1.29418942  0.81855702  2.22911612  1
  Mo  Mo5  1  6.45193381  1.89431776  2.25022736  1
  Mo  Mo6  1  7.73555132  0.09923287  0.00607334  1
  Mo  Mo7  1  12.92737454  0.90897291  0.04331707  1
  Mo  Mo8  1  10.28056988  1.83860014  0.00671040  1
  Mo  Mo9  1  11.60160155  -0.07090879  2.23880988  1
  Mo  Mo10  1  9.04243038  0.92924650  2.29166613  1
  Mo  Mo11  1  14.04938202  1.87564517  2.21651847  1
