# generated using pymatgen
data_Mo
_symmetry_space_group_name_H-M   'P 1'
_cell_length_a   25.43643199
_cell_length_b   2.73880610
_cell_length_c   4.47245071
_cell_angle_alpha   90.00000000
_cell_angle_beta   90.00000000
_cell_angle_gamma   90.00000000
_symmetry_Int_Tables_number   1
_chemical_formula_structural   Mo
_chemical_formula_sum   Mo12
_cell_volume   311.57531409
_cell_formula_units_Z   12
loop_
 _symmetry_equiv_pos_site_id
 _symmetry_equiv_pos_as_xyz
  1  'x, y, z'
loop_
 _atom_site_type_symbol
 _atom_site_label
 _atom_site_symmetry_multiplicity
 _atom_site_fract_x
 _atom_site_fract_y
 _atom_site_fract_z
 _atom_site_occupancy
  Mo  Mo0  1  0.18608031  -0.19654407  -0.04849775  1
  Mo  Mo1  1  5.22043894  0.99560168  0.03974566  1
  Mo  Mo2  1  2.58824393  1.82526090  -0.06821429  1
  Mo  Mo3  1  3.82623228  0.04853136  2.22459085  1
  Mo  Mo4  1  1.29697540  0.81546913  2.22277512  1
  Mo  Mo5  1  6.45827479  1.89517116  2.24760223  1
  Mo  Mo6  1  7.74057451  0.09399912  -0.00254420  1
  Mo  Mo7  1  12.93942876  0.91315789  0.03686840  1
  Mo  Mo8  1  10.27462913  1.82465084  0.01932697  1
  Mo  Mo9  1  11.60619968  -0.07247756  2.23332206  1
  Mo  Mo10  1  9.03610484  0.93257969  2.29496369  1
  Mo  Mo11  1  14.03845702  1.87982329  2.21741536  1
