# generated using pymatgen
data_Mo
_symmetry_space_group_name_H-M   'P 1'
_cell_length_a   25.43643199
_cell_length_b   2.73880610
_cell_length_c   4.47245071
_cell_angle_alpha   90.00000000
_cell_angle_beta   90.00000000
_cell_angle_gamma   90.00000000
_symmetry_Int_Tables_number   1
_chemical_formula_structural   Mo
_chemical_formula_sum   Mo12
_cell_volume   311.57531409
_cell_formula_units_Z   12
loop_
 _symmetry_equiv_pos_site_id
 _symmetry_equiv_pos_as_xyz
  1  'x, y, z'
loop_
 _atom_site_type_symbol
 _atom_site_label
 _atom_site_symmetry_multiplicity
 _atom_site_fract_x
 _atom_site_fract_y
 _atom_site_fract_z
 _atom_site_occupancy
  Mo  Mo0  1  0.18277893  -0.20678585  -0.04243117  1
  Mo  Mo1  1  5.20934103  1.01091566  0.03528149  1
  Mo  Mo2  1  2.59809783  1.83124722  -0.06753286  1
  Mo  Mo3  1  3.82514146  0.04818211  2.23690893  1
  Mo  Mo4  1  1.29687558  0.81326564  2.21322562  1
  Mo  Mo5  1  6.46432957  1.89531472  2.24569433  1
  Mo  Mo6  1  7.74537319  0.08670044  -0.00790003  1
  Mo  Mo7  1  12.94981835  0.91697431  0.02725689  1
  Mo  Mo8  1  10.27487706  1.81059474  0.03261276  1
  Mo  Mo9  1  11.61206570  -0.07190822  2.23014708  1
  Mo  Mo10  1  9.02671691  0.93690466  2.29387184  1
  Mo  Mo11  1  14.02622398  1.88381799  2.22021922  1
