# generated using pymatgen
data_Mo
_symmetry_space_group_name_H-M   'P 1'
_cell_length_a   25.43643199
_cell_length_b   2.73880610
_cell_length_c   4.47245071
_cell_angle_alpha   90.00000000
_cell_angle_beta   90.00000000
_cell_angle_gamma   90.00000000
_symmetry_Int_Tables_number   1
_chemical_formula_structural   Mo
_chemical_formula_sum   Mo12
_cell_volume   311.57531409
_cell_formula_units_Z   12
loop_
 _symmetry_equiv_pos_site_id
 _symmetry_equiv_pos_as_xyz
  1  'x, y, z'
loop_
 _atom_site_type_symbol
 _atom_site_label
 _atom_site_symmetry_multiplicity
 _atom_site_fract_x
 _atom_site_fract_y
 _atom_site_fract_z
 _atom_site_occupancy
  Mo  Mo0  1  0.17991171  -0.21511785  -0.03589703  1
  Mo  Mo1  1  5.19669237  1.02401522  0.02817231  1
  Mo  Mo2  1  2.60770943  1.83697107  -0.06166538  1
  Mo  Mo3  1  3.82828210  0.04731066  2.24720987  1
  Mo  Mo4  1  1.29393157  0.81191463  2.20141352  1
  Mo  Mo5  1  6.46926726  1.89493976  2.24432802  1
  Mo  Mo6  1  7.74908885  0.07787796  -0.00956499  1
  Mo  Mo7  1  12.95764092  0.92016215  0.01509129  1
  Mo  Mo8  1  10.28150996  1.79726771  0.04521219  1
  Mo  Mo9  1  11.61819994  -0.06934870  2.22972737  1
  Mo  Mo10  1  9.01544507  0.94158844  2.28877287  1
  Mo  Mo11  1  14.01396041  1.88764239  2.22455406  1
