# generated using pymatgen
data_Mo
_symmetry_space_group_name_H-M   'P 1'
_cell_length_a   25.43643199
_cell_length_b   2.73880610
_cell_length_c   4.47245071
_cell_angle_alpha   90.00000000
_cell_angle_beta   90.00000000
_cell_angle_gamma   90.00000000
_symmetry_Int_Tables_number   1
_chemical_formula_structural   Mo
_chemical_formula_sum   Mo12
_cell_volume   311.57531409
_cell_formula_units_Z   12
loop_
 _symmetry_equiv_pos_site_id
 _symmetry_equiv_pos_as_xyz
  1  'x, y, z'
loop_
 _atom_site_type_symbol
 _atom_site_label
 _atom_site_symmetry_multiplicity
 _atom_site_fract_x
 _atom_site_fract_y
 _atom_site_fract_z
 _atom_site_occupancy
  Mo  Mo0  1  0.17785976  -0.22131857  -0.02949738  1
  Mo  Mo1  1  5.18403268  1.03403621  0.01927274  1
  Mo  Mo2  1  2.61580560  1.84219953  -0.05108498  1
  Mo  Mo3  1  3.83537441  0.04636607  2.25462198  1
  Mo  Mo4  1  1.28854442  0.81136323  2.18863029  1
  Mo  Mo5  1  6.47234786  1.89419880  2.24330498  1
  Mo  Mo6  1  7.75114164  0.06814689  -0.00758631  1
  Mo  Mo7  1  12.96227389  0.92253526  0.00133152  1
  Mo  Mo8  1  10.29404741  1.78541853  0.05579231  1
  Mo  Mo9  1  11.62354948  -0.06502586  2.23219438  1
  Mo  Mo10  1  9.00368231  0.94598418  2.28051584  1
  Mo  Mo11  1  14.00298009  1.89131916  2.22985874  1
