# generated using pymatgen
data_Mo
_symmetry_space_group_name_H-M   'P 1'
_cell_length_a   12.82874274
_cell_length_b   13.60693648
_cell_length_c   29.78810234
_cell_angle_alpha   90.00000000
_cell_angle_beta   90.00000000
_cell_angle_gamma   90.00000000
_symmetry_Int_Tables_number   1
_chemical_formula_structural   Mo
_chemical_formula_sum   Mo144
_cell_volume   5199.80779529
_cell_formula_units_Z   144
loop_
 _symmetry_equiv_pos_site_id
 _symmetry_equiv_pos_as_xyz
  1  'x, y, z'
loop_
 _atom_site_type_symbol
 _atom_site_label
 _atom_site_symmetry_multiplicity
 _atom_site_fract_x
 _atom_site_fract_y
 _atom_site_fract_z
 _atom_site_occupancy
  Mo  Mo0  1  0.00000000  2.26781788  0.00000000  1
  Mo  Mo1  1  3.20718569  2.26781788  0.00000000  1
  Mo  Mo2  1  1.60359284  4.53564569  0.00000000  1
  Mo  Mo3  1  1.60359284  0.00000000  0.00000000  1
  Mo  Mo4  1  0.00000000  0.00000000  2.26781788  1
  Mo  Mo5  1  3.20718569  0.00000000  2.26781788  1
  Mo  Mo6  1  1.60359284  2.26781788  2.26781788  1
  Mo  Mo7  1  0.00000000  4.53564569  2.26781788  1
  Mo  Mo8  1  3.20718569  4.53564569  2.26781788  1
  Mo  Mo9  1  6.41437137  2.26781788  0.00000000  1
  Mo  Mo10  1  4.81077853  4.53564569  0.00000000  1
  Mo  Mo11  1  8.01796421  4.53564569  0.00000000  1
  Mo  Mo12  1  4.81077853  0.00000000  0.00000000  1
  Mo  Mo13  1  8.01796421  0.00000000  0.00000000  1
  Mo  Mo14  1  6.41437137  0.00000000  2.26781788  1
  Mo  Mo15  1  4.81077853  2.26781788  2.26781788  1
  Mo  Mo16  1  8.01796421  2.26781788  2.26781788  1
  Mo  Mo17  1  6.41437137  4.53564569  2.26781788  1
  Mo  Mo18  1  9.62155706  2.26781788  0.00000000  1
  Mo  Mo19  1  11.22514990  4.53564569  0.00000000  1
  Mo  Mo20  1  11.22514990  0.00000000  0.00000000  1
  Mo  Mo21  1  9.62155706  0.00000000  2.26781788  1
  Mo  Mo22  1  11.22514990  2.26781788  2.26781788  1
  Mo  Mo23  1  9.62155706  4.53564569  2.26781788  1
  Mo  Mo24  1  3.31182136  2.38541138  4.81262539  1
  Mo  Mo25  1  1.63605194  4.56763811  4.52290631  1
  Mo  Mo26  1  1.74770768  2.32271735  6.82613231  1
  Mo  Mo27  1  3.24200798  4.54148415  6.73331258  1
  Mo  Mo28  1  12.65517740  2.27255419  4.70870463  1
  Mo  Mo29  1  0.02947354  4.66003087  6.56262676  1
  Mo  Mo30  1  11.23627079  0.02517968  4.57592913  1
  Mo  Mo31  1  9.67691328  4.65874005  6.74374835  1
  Mo  Mo32  1  11.23448350  2.25231814  6.80844811  1
  Mo  Mo33  1  6.39310267  2.05080162  4.46756994  1
  Mo  Mo34  1  4.90852322  4.54616089  4.37765952  1
  Mo  Mo35  1  7.78633193  4.53749255  4.36175267  1
  Mo  Mo36  1  4.90181097  2.38418013  6.76903845  1
  Mo  Mo37  1  8.01516413  2.41873433  6.65201092  1
  Mo  Mo38  1  6.44095229  4.72250645  6.54097081  1
  Mo  Mo39  1  11.27042781  4.47939582  4.52065234  1
  Mo  Mo40  1  9.63313470  2.17989333  4.48777620  1
  Mo  Mo41  1  9.56996406  -0.01158340  6.77063707  1
  Mo  Mo42  1  3.40252613  0.00487224  6.68830276  1
  Mo  Mo43  1  0.06357019  -0.04073295  6.89219239  1
  Mo  Mo44  1  6.54619365  0.02434135  6.80089186  1
  Mo  Mo45  1  4.91048924  6.73799924  6.73015504  1
  Mo  Mo46  1  1.76875794  0.20896354  4.43324412  1
  Mo  Mo47  1  1.83214702  6.71154741  6.68795523  1
  Mo  Mo48  1  8.12627375  0.07370728  4.32291892  1
  Mo  Mo49  1  3.11820862  2.17923799  8.98292000  1
  Mo  Mo50  1  1.48905759  4.53345129  8.81663288  1
  Mo  Mo51  1  0.18779015  2.37321811  9.08128031  1
  Mo  Mo52  1  2.74780350  4.70136683  11.00263277  1
  Mo  Mo53  1  12.57921774  4.68082297  11.11433816  1
  Mo  Mo54  1  5.31596488  3.10292733  11.19228369  1
  Mo  Mo55  1  6.47855480  2.47612608  8.78126448  1
  Mo  Mo56  1  4.59196506  4.38600019  8.99381252  1
  Mo  Mo57  1  8.29486448  4.49266145  8.93278662  1
  Mo  Mo58  1  8.40625213  2.35078767  11.11870708  1
  Mo  Mo59  1  6.34927444  0.14703507  11.25861187  1
  Mo  Mo60  1  7.94257053  0.05598386  9.10018583  1
  Mo  Mo61  1  6.78784467  5.47867743  11.16636804  1
  Mo  Mo62  1  3.92023342  1.20626920  11.13231031  1
  Mo  Mo63  1  9.68508515  4.49030819  11.12714704  1
  Mo  Mo64  1  11.41629022  2.30974960  11.07362775  1
  Mo  Mo65  1  9.77826233  2.18276292  9.01650112  1
  Mo  Mo66  1  11.22028451  4.54276504  8.77854383  1
  Mo  Mo67  1  1.70222125  2.36294122  11.15385704  1
  Mo  Mo68  1  11.47159680  0.16986963  8.93588459  1
  Mo  Mo69  1  4.75325770  6.49776813  10.93312720  1
  Mo  Mo70  1  1.62174373  0.10851508  8.70147208  1
  Mo  Mo71  1  0.00000000  6.80346356  0.00000000  1
  Mo  Mo72  1  3.20718569  6.80346356  0.00000000  1
  Mo  Mo73  1  1.60359284  9.07129137  0.00000000  1
  Mo  Mo74  1  0.00000000  11.33913904  0.00000000  1
  Mo  Mo75  1  3.20718569  11.33913904  0.00000000  1
  Mo  Mo76  1  1.60359284  6.80346356  2.26781788  1
  Mo  Mo77  1  0.00000000  9.07129137  2.26781788  1
  Mo  Mo78  1  3.20718569  9.07129137  2.26781788  1
  Mo  Mo79  1  1.60359284  11.33913904  2.26781788  1
  Mo  Mo80  1  6.41437137  6.80346356  0.00000000  1
  Mo  Mo81  1  4.81077853  9.07129137  0.00000000  1
  Mo  Mo82  1  8.01796421  9.07129137  0.00000000  1
  Mo  Mo83  1  6.41437137  11.33913904  0.00000000  1
  Mo  Mo84  1  4.81077853  6.80346356  2.26781788  1
  Mo  Mo85  1  8.01796421  6.80346356  2.26781788  1
  Mo  Mo86  1  6.41437137  9.07129137  2.26781788  1
  Mo  Mo87  1  4.81077853  11.33913904  2.26781788  1
  Mo  Mo88  1  8.01796421  11.33913904  2.26781788  1
  Mo  Mo89  1  9.62155706  6.80346356  0.00000000  1
  Mo  Mo90  1  11.22514990  9.07129137  0.00000000  1
  Mo  Mo91  1  9.62155706  11.33913904  0.00000000  1
  Mo  Mo92  1  11.22514990  6.80346356  2.26781788  1
  Mo  Mo93  1  9.62155706  9.07129137  2.26781788  1
  Mo  Mo94  1  11.22514990  11.33913904  2.26781788  1
  Mo  Mo95  1  1.45325229  9.27847755  4.47683404  1
  Mo  Mo96  1  3.21104821  11.23686655  4.51856717  1
  Mo  Mo97  1  3.45502270  9.02001612  6.59397377  1
  Mo  Mo98  1  1.50137000  11.44151081  6.76921717  1
  Mo  Mo99  1  12.67384461  11.30845729  4.49032805  1
  Mo  Mo100  1  4.85937285  8.92075223  4.30704186  1
  Mo  Mo101  1  8.08394486  8.81302852  4.64212822  1
  Mo  Mo102  1  6.42926542  11.28204517  4.44219048  1
  Mo  Mo103  1  6.56057138  9.08286901  6.65963668  1
  Mo  Mo104  1  4.89662784  11.28502398  6.62712793  1
  Mo  Mo105  1  8.07776879  11.44270234  6.88127009  1
  Mo  Mo106  1  9.69786424  9.21845453  6.67260443  1
  Mo  Mo107  1  11.23587361  9.27919247  4.47422262  1
  Mo  Mo108  1  12.69390193  9.22620936  6.85759847  1
  Mo  Mo109  1  6.19632246  6.79797262  4.25601484  1
  Mo  Mo110  1  9.61684061  11.28125082  4.62963708  1
  Mo  Mo111  1  11.33020261  11.52491750  6.65497980  1
  Mo  Mo112  1  4.93797372  13.53243701  4.36226900  1
  Mo  Mo113  1  11.26566172  6.92459192  6.76882993  1
  Mo  Mo114  1  8.15073971  6.85285224  6.43034772  1
  Mo  Mo115  1  0.07669880  6.91998469  4.41101226  1
  Mo  Mo116  1  9.79248119  6.93592132  4.57213611  1
  Mo  Mo117  1  3.24847199  6.85281252  4.33671081  1
  Mo  Mo118  1  1.81517773  9.02652978  8.70061815  1
  Mo  Mo119  1  3.22273507  11.23637008  8.59222918  1
  Mo  Mo120  1  3.40717307  9.14695315  10.97214962  1
  Mo  Mo121  1  0.29764768  9.69305843  11.23229904  1
  Mo  Mo122  1  1.22705137  7.19788783  10.98257545  1
  Mo  Mo123  1  10.88725352  11.18265221  11.22306473  1
  Mo  Mo124  1  4.88530836  9.27345329  8.83948036  1
  Mo  Mo125  1  7.99338903  8.84073146  8.92438638  1
  Mo  Mo126  1  6.67965428  11.29693922  9.06509544  1
  Mo  Mo127  1  5.03969016  11.66412723  10.83701092  1
  Mo  Mo128  1  6.45944077  8.73541066  11.51886059  1
  Mo  Mo129  1  7.79991530  11.62947374  11.66382935  1
  Mo  Mo130  1  2.22379106  11.79479771  10.74377416  1
  Mo  Mo131  1  4.74783627  13.30942342  8.85948803  1
  Mo  Mo132  1  11.36833138  7.55837351  11.44905713  1
  Mo  Mo133  1  12.67245450  11.23686655  9.19687801  1
  Mo  Mo134  1  9.73478163  11.49860468  8.84160524  1
  Mo  Mo135  1  9.00144820  9.35339463  11.36614692  1
  Mo  Mo136  1  10.96291530  9.02911142  9.21919923  1
  Mo  Mo137  1  8.67231946  6.89898408  12.69181676  1
  Mo  Mo138  1  0.01885706  13.43344122  11.00064690  1
  Mo  Mo139  1  0.12891496  6.79449734  8.95234748  1
  Mo  Mo140  1  6.39700491  6.85319976  8.88508594  1
  Mo  Mo141  1  3.22384716  6.97055496  8.76894213  1
  Mo  Mo142  1  9.79369257  6.82857493  9.37000646  1
  Mo  Mo143  1  9.75064876  13.38021981  11.26685324  1
