# generated using pymatgen
data_Mo
_symmetry_space_group_name_H-M   'P 1'
_cell_length_a   12.82874274
_cell_length_b   13.60693648
_cell_length_c   29.78810234
_cell_angle_alpha   90.00000000
_cell_angle_beta   90.00000000
_cell_angle_gamma   90.00000000
_symmetry_Int_Tables_number   1
_chemical_formula_structural   Mo
_chemical_formula_sum   Mo144
_cell_volume   5199.80779529
_cell_formula_units_Z   144
loop_
 _symmetry_equiv_pos_site_id
 _symmetry_equiv_pos_as_xyz
  1  'x, y, z'
loop_
 _atom_site_type_symbol
 _atom_site_label
 _atom_site_symmetry_multiplicity
 _atom_site_fract_x
 _atom_site_fract_y
 _atom_site_fract_z
 _atom_site_occupancy
  Mo  Mo0  1  0.00000000  2.26781788  0.00000000  1
  Mo  Mo1  1  3.20718569  2.26781788  0.00000000  1
  Mo  Mo2  1  1.60359284  4.53564569  0.00000000  1
  Mo  Mo3  1  1.60359284  0.00000000  0.00000000  1
  Mo  Mo4  1  0.00000000  0.00000000  2.26781788  1
  Mo  Mo5  1  3.20718569  0.00000000  2.26781788  1
  Mo  Mo6  1  1.60359284  2.26781788  2.26781788  1
  Mo  Mo7  1  0.00000000  4.53564569  2.26781788  1
  Mo  Mo8  1  3.20718569  4.53564569  2.26781788  1
  Mo  Mo9  1  6.41437137  2.26781788  0.00000000  1
  Mo  Mo10  1  4.81077853  4.53564569  0.00000000  1
  Mo  Mo11  1  8.01796421  4.53564569  0.00000000  1
  Mo  Mo12  1  4.81077853  0.00000000  0.00000000  1
  Mo  Mo13  1  8.01796421  0.00000000  0.00000000  1
  Mo  Mo14  1  6.41437137  0.00000000  2.26781788  1
  Mo  Mo15  1  4.81077853  2.26781788  2.26781788  1
  Mo  Mo16  1  8.01796421  2.26781788  2.26781788  1
  Mo  Mo17  1  6.41437137  4.53564569  2.26781788  1
  Mo  Mo18  1  9.62155706  2.26781788  0.00000000  1
  Mo  Mo19  1  11.22514990  4.53564569  0.00000000  1
  Mo  Mo20  1  11.22514990  0.00000000  0.00000000  1
  Mo  Mo21  1  9.62155706  0.00000000  2.26781788  1
  Mo  Mo22  1  11.22514990  2.26781788  2.26781788  1
  Mo  Mo23  1  9.62155706  4.53564569  2.26781788  1
  Mo  Mo24  1  3.07011077  2.20479618  4.46880118  1
  Mo  Mo25  1  1.36659870  4.55468028  4.59750564  1
  Mo  Mo26  1  1.63931871  2.21692987  6.90631195  1
  Mo  Mo27  1  3.10184503  4.07873591  6.87497487  1
  Mo  Mo28  1  3.48396680  0.15757906  6.79470586  1
  Mo  Mo29  1  0.07129375  2.29306826  4.38560301  1
  Mo  Mo30  1  0.05745390  3.95815367  7.05548084  1
  Mo  Mo31  1  1.74093585  0.10671389  4.57935476  1
  Mo  Mo32  1  6.59238507  2.47874743  4.87430662  1
  Mo  Mo33  1  4.75295982  4.50727748  4.39143155  1
  Mo  Mo34  1  8.11350459  4.65808472  4.75204632  1
  Mo  Mo35  1  4.80170309  2.11716951  7.02638779  1
  Mo  Mo36  1  8.15715409  2.05948982  6.93198930  1
  Mo  Mo37  1  6.21151439  4.49046706  6.97655230  1
  Mo  Mo38  1  7.99023149  0.18065690  4.50958110  1
  Mo  Mo39  1  8.01918553  6.43202579  6.77185839  1
  Mo  Mo40  1  6.45911310  0.11125459  6.80775305  1
  Mo  Mo41  1  11.43178003  4.52139704  4.46794726  1
  Mo  Mo42  1  9.75867169  2.30571827  4.93315798  1
  Mo  Mo43  1  11.77781849  1.83704220  6.77814368  1
  Mo  Mo44  1  3.00355422  1.59660257  9.33893747  1
  Mo  Mo45  1  1.95687974  4.24186549  9.35936218  1
  Mo  Mo46  1  0.24985267  1.87336383  9.52290879  1
  Mo  Mo47  1  0.12949186  6.49771848  8.64169729  1
  Mo  Mo48  1  3.63856705  6.48521741  9.39621006  1
  Mo  Mo49  1  1.63872294  6.69717961  11.03927214  1
  Mo  Mo50  1  8.33657776  6.58740053  10.96212095  1
  Mo  Mo51  1  8.37947262  1.58220499  11.19754626  1
  Mo  Mo52  1  6.69743778  1.86297771  9.14202818  1
  Mo  Mo53  1  5.18202765  4.21146177  9.56937823  1
  Mo  Mo54  1  8.20783358  4.58829119  9.23761820  1
  Mo  Mo55  1  6.33711096  6.57263556  8.90599719  1
  Mo  Mo56  1  9.93175049  2.04826963  9.22752997  1
  Mo  Mo57  1  11.54388259  4.25236083  9.54261858  1
  Mo  Mo58  1  11.42165208  6.38850537  10.91376493  1
  Mo  Mo59  1  9.70814114  6.70542099  8.67534791  1
  Mo  Mo60  1  10.11008193  4.38568245  7.49725825  1
  Mo  Mo61  1  3.73009596  4.31600808  11.54884728  1
  Mo  Mo62  1  1.88211160  2.27226623  11.43932635  1
  Mo  Mo63  1  0.26938374  4.24018743  11.99020766  1
  Mo  Mo64  1  6.77543296  3.38963781  11.65687879  1
  Mo  Mo65  1  4.99176111  1.69118972  11.22991599  1
  Mo  Mo66  1  5.55029796  6.27292753  11.85020358  1
  Mo  Mo67  1  6.62685983  0.23445123  12.86111248  1
  Mo  Mo68  1  10.02508655  3.54986801  11.60236657  1
  Mo  Mo69  1  11.51915847  1.61199309  11.58151490  1
  Mo  Mo70  1  0.00000000  6.80346356  0.00000000  1
  Mo  Mo71  1  3.20718569  6.80346356  0.00000000  1
  Mo  Mo72  1  1.60359284  9.07129137  0.00000000  1
  Mo  Mo73  1  0.00000000  11.33913904  0.00000000  1
  Mo  Mo74  1  3.20718569  11.33913904  0.00000000  1
  Mo  Mo75  1  1.60359284  6.80346356  2.26781788  1
  Mo  Mo76  1  0.00000000  9.07129137  2.26781788  1
  Mo  Mo77  1  3.20718569  9.07129137  2.26781788  1
  Mo  Mo78  1  1.60359284  11.33913904  2.26781788  1
  Mo  Mo79  1  6.41437137  6.80346356  0.00000000  1
  Mo  Mo80  1  4.81077853  9.07129137  0.00000000  1
  Mo  Mo81  1  8.01796421  9.07129137  0.00000000  1
  Mo  Mo82  1  6.41437137  11.33913904  0.00000000  1
  Mo  Mo83  1  4.81077853  6.80346356  2.26781788  1
  Mo  Mo84  1  8.01796421  6.80346356  2.26781788  1
  Mo  Mo85  1  6.41437137  9.07129137  2.26781788  1
  Mo  Mo86  1  4.81077853  11.33913904  2.26781788  1
  Mo  Mo87  1  8.01796421  11.33913904  2.26781788  1
  Mo  Mo88  1  9.62155706  6.80346356  0.00000000  1
  Mo  Mo89  1  11.22514990  9.07129137  0.00000000  1
  Mo  Mo90  1  9.62155706  11.33913904  0.00000000  1
  Mo  Mo91  1  11.22514990  6.80346356  2.26781788  1
  Mo  Mo92  1  9.62155706  9.07129137  2.26781788  1
  Mo  Mo93  1  11.22514990  11.33913904  2.26781788  1
  Mo  Mo94  1  1.80805838  9.17384188  4.24655215  1
  Mo  Mo95  1  3.11196305  11.52918713  4.49239336  1
  Mo  Mo96  1  3.49313161  9.29775045  6.91761157  1
  Mo  Mo97  1  1.95156752  11.47527066  6.82833663  1
  Mo  Mo98  1  0.49754769  9.25168812  6.80964956  1
  Mo  Mo99  1  1.84644531  7.19791761  7.06872661  1
  Mo  Mo100  1  0.04596830  11.35403309  4.67358446  1
  Mo  Mo101  1  0.08366187  6.77984160  4.57482697  1
  Mo  Mo102  1  0.29648098  13.23515175  7.41730699  1
  Mo  Mo103  1  3.21957754  6.98902358  4.53827697  1
  Mo  Mo104  1  4.83082592  9.50409264  4.60546900  1
  Mo  Mo105  1  8.19376366  8.82394090  4.38314053  1
  Mo  Mo106  1  6.36515150  11.31540785  4.45106733  1
  Mo  Mo107  1  6.38918057  9.22446179  6.73458354  1
  Mo  Mo108  1  4.88062170  11.25662599  6.74000498  1
  Mo  Mo109  1  8.09939496  11.09586953  7.04927498  1
  Mo  Mo110  1  4.64124451  6.84061926  6.97788283  1
  Mo  Mo111  1  5.02941327  13.58406972  4.29736073  1
  Mo  Mo112  1  6.30476108  6.85849212  4.87770246  1
  Mo  Mo113  1  11.59412519  9.05754913  4.50442775  1
  Mo  Mo114  1  9.71405904  8.91440736  6.71698870  1
  Mo  Mo115  1  9.58095587  11.04572623  4.46749051  1
  Mo  Mo116  1  11.46424907  11.24093759  6.84355835  1
  Mo  Mo117  1  11.24073900  6.99130734  6.77579042  1
  Mo  Mo118  1  11.15941749  13.54385578  4.09490092  1
  Mo  Mo119  1  10.00552569  13.44684586  6.85786657  1
  Mo  Mo120  1  9.74176198  7.01572365  4.57284110  1
  Mo  Mo121  1  1.85326679  8.65411893  9.29378864  1
  Mo  Mo122  1  3.52793404  10.89529631  9.33081525  1
  Mo  Mo123  1  0.39263003  10.90304122  8.83676964  1
  Mo  Mo124  1  2.14531927  12.97897407  9.22233691  1
  Mo  Mo125  1  5.17567285  8.64977979  9.17534121  1
  Mo  Mo126  1  7.79960749  8.63184736  8.75804962  1
  Mo  Mo127  1  6.71508226  11.01494519  9.11653950  1
  Mo  Mo128  1  5.48453576  13.07370024  9.12612134  1
  Mo  Mo129  1  12.77472698  8.92269839  11.14303403  1
  Mo  Mo130  1  11.22346191  13.37237561  9.26545022  1
  Mo  Mo131  1  9.53948090  8.99785377  10.99002248  1
  Mo  Mo132  1  9.71081214  11.08852180  9.48433320  1
  Mo  Mo133  1  11.12943080  8.85540706  9.04695449  1
  Mo  Mo134  1  8.59544629  13.35241758  8.84065202  1
  Mo  Mo135  1  3.70227388  13.29582019  11.55450702  1
  Mo  Mo136  1  2.09038008  11.14928953  11.47040527  1
  Mo  Mo137  1  0.39828579  13.10497774  11.17550306  1
  Mo  Mo138  1  3.78928492  8.04232095  11.16924756  1
  Mo  Mo139  1  6.78609710  8.87871129  11.32940826  1
  Mo  Mo140  1  4.86274884  10.84098267  11.45163877  1
  Mo  Mo141  1  7.71375818  11.87979309  11.18940418  1
  Mo  Mo142  1  11.57406787  11.28760562  11.29396041  1
  Mo  Mo143  1  9.86114276  13.27933744  11.96965387  1
