# generated using pymatgen
data_Mo
_symmetry_space_group_name_H-M   'P 1'
_cell_length_a   12.82874274
_cell_length_b   13.60693648
_cell_length_c   29.78810234
_cell_angle_alpha   90.00000000
_cell_angle_beta   90.00000000
_cell_angle_gamma   90.00000000
_symmetry_Int_Tables_number   1
_chemical_formula_structural   Mo
_chemical_formula_sum   Mo144
_cell_volume   5199.80779529
_cell_formula_units_Z   144
loop_
 _symmetry_equiv_pos_site_id
 _symmetry_equiv_pos_as_xyz
  1  'x, y, z'
loop_
 _atom_site_type_symbol
 _atom_site_label
 _atom_site_symmetry_multiplicity
 _atom_site_fract_x
 _atom_site_fract_y
 _atom_site_fract_z
 _atom_site_occupancy
  Mo  Mo0  1  0.00000000  2.26781788  0.00000000  1
  Mo  Mo1  1  3.20718569  2.26781788  0.00000000  1
  Mo  Mo2  1  1.60359284  4.53564569  0.00000000  1
  Mo  Mo3  1  1.60359284  0.00000000  0.00000000  1
  Mo  Mo4  1  0.00000000  0.00000000  2.26781788  1
  Mo  Mo5  1  3.20718569  0.00000000  2.26781788  1
  Mo  Mo6  1  1.60359284  2.26781788  2.26781788  1
  Mo  Mo7  1  0.00000000  4.53564569  2.26781788  1
  Mo  Mo8  1  3.20718569  4.53564569  2.26781788  1
  Mo  Mo9  1  6.41437137  2.26781788  0.00000000  1
  Mo  Mo10  1  4.81077853  4.53564569  0.00000000  1
  Mo  Mo11  1  8.01796421  4.53564569  0.00000000  1
  Mo  Mo12  1  4.81077853  0.00000000  0.00000000  1
  Mo  Mo13  1  8.01796421  0.00000000  0.00000000  1
  Mo  Mo14  1  6.41437137  0.00000000  2.26781788  1
  Mo  Mo15  1  4.81077853  2.26781788  2.26781788  1
  Mo  Mo16  1  8.01796421  2.26781788  2.26781788  1
  Mo  Mo17  1  6.41437137  4.53564569  2.26781788  1
  Mo  Mo18  1  9.62155706  2.26781788  0.00000000  1
  Mo  Mo19  1  11.22514990  4.53564569  0.00000000  1
  Mo  Mo20  1  11.22514990  0.00000000  0.00000000  1
  Mo  Mo21  1  9.62155706  0.00000000  2.26781788  1
  Mo  Mo22  1  11.22514990  2.26781788  2.26781788  1
  Mo  Mo23  1  9.62155706  4.53564569  2.26781788  1
  Mo  Mo24  1  3.43668315  2.24772084  4.40642490  1
  Mo  Mo25  1  1.58423058  4.52567660  4.62741290  1
  Mo  Mo26  1  1.77850858  2.40575665  6.84763932  1
  Mo  Mo27  1  3.36441722  4.85757564  7.07961913  1
  Mo  Mo28  1  0.10174921  2.20264151  4.46427339  1
  Mo  Mo29  1  11.26586030  4.75262222  4.31044763  1
  Mo  Mo30  1  9.72640125  4.19554499  6.95601836  1
  Mo  Mo31  1  6.42133186  2.37841117  4.83682326  1
  Mo  Mo32  1  4.57649510  4.38221710  4.60350298  1
  Mo  Mo33  1  8.29372261  4.35046298  4.64636806  1
  Mo  Mo34  1  4.64105585  2.84066294  7.00153458  1
  Mo  Mo35  1  7.38537414  2.62293178  7.08216105  1
  Mo  Mo36  1  6.41897860  4.98846456  6.90021532  1
  Mo  Mo37  1  11.22127744  2.07191146  6.87197620  1
  Mo  Mo38  1  9.88142846  1.98724374  4.66492605  1
  Mo  Mo39  1  12.62608435  4.34832817  7.17180338  1
  Mo  Mo40  1  6.35211424  0.35901018  7.01516761  1
  Mo  Mo41  1  3.41439173  0.34481516  6.95141114  1
  Mo  Mo42  1  12.74086784  0.02614015  6.91544697  1
  Mo  Mo43  1  3.13280479  6.55887345  4.27299406  1
  Mo  Mo44  1  9.48051039  6.74357955  4.65778683  1
  Mo  Mo45  1  3.23499784  2.32214145  9.58493755  1
  Mo  Mo46  1  0.58207441  4.46529612  10.43904188  1
  Mo  Mo47  1  0.35610286  2.09859167  9.16545156  1
  Mo  Mo48  1  10.10134409  4.13140128  11.81753596  1
  Mo  Mo49  1  6.41573169  6.77142149  9.54401863  1
  Mo  Mo50  1  6.42607809  2.25400613  9.74561457  1
  Mo  Mo51  1  5.04980819  4.36670743  9.24786531  1
  Mo  Mo52  1  7.97391754  4.64524604  9.42270161  1
  Mo  Mo53  1  2.95787913  0.55217312  11.52313022  1
  Mo  Mo54  1  11.56632296  2.17109591  11.50912981  1
  Mo  Mo55  1  9.57625928  2.17171153  8.93021492  1
  Mo  Mo56  1  10.96758211  4.20792691  9.26055504  1
  Mo  Mo57  1  12.68119234  5.33889179  13.16187302  1
  Mo  Mo58  1  3.02762300  5.04674002  11.53961296  1
  Mo  Mo59  1  1.28102741  2.88488835  12.13686442  1
  Mo  Mo60  1  4.67536181  2.61736140  12.10231022  1
  Mo  Mo61  1  8.45284072  2.26458090  11.28373317  1
  Mo  Mo62  1  6.73440481  4.29285279  11.54229389  1
  Mo  Mo63  1  6.45067314  0.84536946  11.86460116  1
  Mo  Mo64  1  11.49572516  0.15269977  9.40966435  1
  Mo  Mo65  1  2.75588601  6.04707414  8.97038914  1
  Mo  Mo66  1  9.82533746  0.10769193  11.39315480  1
  Mo  Mo67  1  12.55052186  6.60476699  9.14835319  1
  Mo  Mo68  1  11.59601177  6.64881367  11.59025274  1
  Mo  Mo69  1  8.20488456  6.69417102  11.96945528  1
  Mo  Mo70  1  9.31067849  0.20431659  7.66399219  1
  Mo  Mo71  1  0.00000000  6.80346356  0.00000000  1
  Mo  Mo72  1  3.20718569  6.80346356  0.00000000  1
  Mo  Mo73  1  1.60359284  9.07129137  0.00000000  1
  Mo  Mo74  1  0.00000000  11.33913904  0.00000000  1
  Mo  Mo75  1  3.20718569  11.33913904  0.00000000  1
  Mo  Mo76  1  1.60359284  6.80346356  2.26781788  1
  Mo  Mo77  1  0.00000000  9.07129137  2.26781788  1
  Mo  Mo78  1  3.20718569  9.07129137  2.26781788  1
  Mo  Mo79  1  1.60359284  11.33913904  2.26781788  1
  Mo  Mo80  1  6.41437137  6.80346356  0.00000000  1
  Mo  Mo81  1  4.81077853  9.07129137  0.00000000  1
  Mo  Mo82  1  8.01796421  9.07129137  0.00000000  1
  Mo  Mo83  1  6.41437137  11.33913904  0.00000000  1
  Mo  Mo84  1  4.81077853  6.80346356  2.26781788  1
  Mo  Mo85  1  8.01796421  6.80346356  2.26781788  1
  Mo  Mo86  1  6.41437137  9.07129137  2.26781788  1
  Mo  Mo87  1  4.81077853  11.33913904  2.26781788  1
  Mo  Mo88  1  8.01796421  11.33913904  2.26781788  1
  Mo  Mo89  1  9.62155706  6.80346356  0.00000000  1
  Mo  Mo90  1  11.22514990  9.07129137  0.00000000  1
  Mo  Mo91  1  9.62155706  11.33913904  0.00000000  1
  Mo  Mo92  1  11.22514990  6.80346356  2.26781788  1
  Mo  Mo93  1  9.62155706  9.07129137  2.26781788  1
  Mo  Mo94  1  11.22514990  11.33913904  2.26781788  1
  Mo  Mo95  1  1.50720847  8.84953881  4.73947574  1
  Mo  Mo96  1  3.05281381  11.32533722  4.67907540  1
  Mo  Mo97  1  3.36782299  8.96323006  6.62484417  1
  Mo  Mo98  1  1.59285920  11.10073492  7.05033743  1
  Mo  Mo99  1  5.22346290  11.38967952  6.66940717  1
  Mo  Mo100  1  11.25732105  11.53623698  6.84171149  1
  Mo  Mo101  1  0.23528431  11.49939903  4.81594180  1
  Mo  Mo102  1  4.83260328  9.46132685  4.51725650  1
  Mo  Mo103  1  7.99431246  9.13995295  4.98676664  1
  Mo  Mo104  1  6.32997175  11.36753703  4.48479739  1
  Mo  Mo105  1  6.45396969  8.92024583  7.23608610  1
  Mo  Mo106  1  9.72075144  9.18405920  6.97551964  1
  Mo  Mo107  1  12.77214535  6.85340828  4.36223921  1
  Mo  Mo108  1  9.62229183  11.63225396  4.86536026  1
  Mo  Mo109  1  11.10162857  9.51843065  4.53350094  1
  Mo  Mo110  1  12.77959237  9.23147193  6.78019906  1
  Mo  Mo111  1  8.33938777  6.84845353  7.20390502  1
  Mo  Mo112  1  4.72804704  13.50741501  4.55319088  1
  Mo  Mo113  1  4.71933898  7.00219985  6.53908423  1
  Mo  Mo114  1  8.27081555  13.34655925  4.41804226  1
  Mo  Mo115  1  11.16239630  6.99879408  6.81080137  1
  Mo  Mo116  1  1.49563083  6.90347215  6.95848085  1
  Mo  Mo117  1  6.37496171  6.87044708  4.42809078  1
  Mo  Mo118  1  1.54304356  13.50969876  4.48343707  1
  Mo  Mo119  1  11.31163469  13.46015122  4.57172901  1
  Mo  Mo120  1  1.80340150  8.98895706  8.92291683  1
  Mo  Mo121  1  3.23557375  11.27082499  8.96833376  1
  Mo  Mo122  1  12.77105312  11.32791885  9.21974534  1
  Mo  Mo123  1  2.06215089  11.58350077  11.41688598  1
  Mo  Mo124  1  4.51790191  7.09203084  12.40019124  1
  Mo  Mo125  1  1.83182928  7.30011066  11.34033056  1
  Mo  Mo126  1  4.49537217  8.68068991  9.38547642  1
  Mo  Mo127  1  6.09909410  11.17967340  10.03084558  1
  Mo  Mo128  1  9.55329265  8.98999964  11.39802019  1
  Mo  Mo129  1  4.73932680  12.14887895  12.20865374  1
  Mo  Mo130  1  7.82823386  8.82720766  9.88049510  1
  Mo  Mo131  1  9.87599710  11.39275762  9.43422961  1
  Mo  Mo132  1  11.61745921  9.12798806  9.22607035  1
  Mo  Mo133  1  11.06349980  11.41211989  11.70930585  1
  Mo  Mo134  1  0.18760348  9.60718926  11.59412519  1
  Mo  Mo135  1  3.71291816  9.76621801  11.27072569  1
  Mo  Mo136  1  7.71548589  11.82081265  11.94999372  1
  Mo  Mo137  1  6.85755876  8.64030718  12.53632287  1
  Mo  Mo138  1  0.07776552  13.57265095  11.41907044  1
  Mo  Mo139  1  7.67779401  13.43910096  9.43564951  1
  Mo  Mo140  1  1.71991538  13.26474127  9.00477454  1
  Mo  Mo141  1  7.87775162  11.24401570  7.98950665  1
  Mo  Mo142  1  9.72823818  6.90460410  9.19663970  1
  Mo  Mo143  1  4.52426663  13.52598292  9.71224197  1
