# generated using pymatgen
data_Mo
_symmetry_space_group_name_H-M   'P 1'
_cell_length_a   12.82874274
_cell_length_b   13.60693648
_cell_length_c   29.78810234
_cell_angle_alpha   90.00000000
_cell_angle_beta   90.00000000
_cell_angle_gamma   90.00000000
_symmetry_Int_Tables_number   1
_chemical_formula_structural   Mo
_chemical_formula_sum   Mo144
_cell_volume   5199.80779529
_cell_formula_units_Z   144
loop_
 _symmetry_equiv_pos_site_id
 _symmetry_equiv_pos_as_xyz
  1  'x, y, z'
loop_
 _atom_site_type_symbol
 _atom_site_label
 _atom_site_symmetry_multiplicity
 _atom_site_fract_x
 _atom_site_fract_y
 _atom_site_fract_z
 _atom_site_occupancy
  Mo  Mo0  1  0.00000000  2.26781788  0.00000000  1
  Mo  Mo1  1  3.20718569  2.26781788  0.00000000  1
  Mo  Mo2  1  1.60359284  4.53564569  0.00000000  1
  Mo  Mo3  1  1.60359284  0.00000000  0.00000000  1
  Mo  Mo4  1  0.00000000  0.00000000  2.26781788  1
  Mo  Mo5  1  3.20718569  0.00000000  2.26781788  1
  Mo  Mo6  1  1.60359284  2.26781788  2.26781788  1
  Mo  Mo7  1  0.00000000  4.53564569  2.26781788  1
  Mo  Mo8  1  3.20718569  4.53564569  2.26781788  1
  Mo  Mo9  1  6.41437137  2.26781788  0.00000000  1
  Mo  Mo10  1  4.81077853  4.53564569  0.00000000  1
  Mo  Mo11  1  8.01796421  4.53564569  0.00000000  1
  Mo  Mo12  1  4.81077853  0.00000000  0.00000000  1
  Mo  Mo13  1  8.01796421  0.00000000  0.00000000  1
  Mo  Mo14  1  6.41437137  0.00000000  2.26781788  1
  Mo  Mo15  1  4.81077853  2.26781788  2.26781788  1
  Mo  Mo16  1  8.01796421  2.26781788  2.26781788  1
  Mo  Mo17  1  6.41437137  4.53564569  2.26781788  1
  Mo  Mo18  1  9.62155706  2.26781788  0.00000000  1
  Mo  Mo19  1  11.22514990  4.53564569  0.00000000  1
  Mo  Mo20  1  11.22514990  0.00000000  0.00000000  1
  Mo  Mo21  1  9.62155706  0.00000000  2.26781788  1
  Mo  Mo22  1  11.22514990  2.26781788  2.26781788  1
  Mo  Mo23  1  9.62155706  4.53564569  2.26781788  1
  Mo  Mo24  1  3.21670795  2.35017205  4.50500366  1
  Mo  Mo25  1  1.42404009  4.82701304  4.57110346  1
  Mo  Mo26  1  3.62554965  4.56631750  7.02783748  1
  Mo  Mo27  1  1.68922371  2.76242946  7.12281188  1
  Mo  Mo28  1  0.05144971  2.40949009  4.40243329  1
  Mo  Mo29  1  0.02240880  4.81746099  6.74056102  1
  Mo  Mo30  1  11.19873778  4.45685615  4.48985144  1
  Mo  Mo31  1  5.28747753  2.39204419  6.65839550  1
  Mo  Mo32  1  6.51275154  2.27998135  4.44053227  1
  Mo  Mo33  1  4.61535865  4.75860963  4.78252948  1
  Mo  Mo34  1  7.99503730  4.48307961  4.47884970  1
  Mo  Mo35  1  8.10733845  2.45304030  6.80645230  1
  Mo  Mo36  1  6.52596753  4.63653799  6.77996075  1
  Mo  Mo37  1  4.74171978  0.07547064  4.47240554  1
  Mo  Mo38  1  11.50098773  2.42752182  6.47814770  1
  Mo  Mo39  1  9.56711433  2.16723339  4.78714663  1
  Mo  Mo40  1  9.48140403  4.61031453  6.48273507  1
  Mo  Mo41  1  0.11411822  0.34057234  6.66473044  1
  Mo  Mo42  1  8.09956375  0.12757053  4.30325877  1
  Mo  Mo43  1  3.27693949  0.14412874  6.77010089  1
  Mo  Mo44  1  6.47608239  6.63809988  4.66103374  1
  Mo  Mo45  1  6.31620964  0.18734929  6.67747975  1
  Mo  Mo46  1  3.12007534  2.22314565  10.25276694  1
  Mo  Mo47  1  1.77476521  4.65730030  9.24555177  1
  Mo  Mo48  1  0.81337506  3.74048208  11.75001626  1
  Mo  Mo49  1  12.88970906  2.57065366  8.98727899  1
  Mo  Mo50  1  9.60852973  0.24445507  11.57764244  1
  Mo  Mo51  1  4.78722607  0.25114945  9.34776468  1
  Mo  Mo52  1  6.70321667  2.70276389  9.18772313  1
  Mo  Mo53  1  5.04593574  4.74355671  9.40821467  1
  Mo  Mo54  1  8.40677838  4.81241687  8.76989535  1
  Mo  Mo55  1  11.79747864  5.40056310  12.30030181  1
  Mo  Mo56  1  4.68566850  1.55429353  12.15692174  1
  Mo  Mo57  1  9.98983729  2.78502870  9.23676428  1
  Mo  Mo58  1  11.37488476  4.90341953  9.09912339  1
  Mo  Mo59  1  10.02349785  4.95890483  11.08842251  1
  Mo  Mo60  1  4.55558385  6.58497776  11.35572108  1
  Mo  Mo61  1  3.26737751  4.27216992  11.55728724  1
  Mo  Mo62  1  1.78188456  1.61671947  12.76301033  1
  Mo  Mo63  1  0.43849675  0.14635391  11.10748689  1
  Mo  Mo64  1  11.65558798  1.86723741  11.43873059  1
  Mo  Mo65  1  8.13725563  2.93996655  11.31679796  1
  Mo  Mo66  1  6.36344364  4.76747656  11.54894657  1
  Mo  Mo67  1  8.11760542  0.38983987  8.78270423  1
  Mo  Mo68  1  8.17006226  6.48398617  11.15544574  1
  Mo  Mo69  1  3.30527791  6.74289442  8.83918248  1
  Mo  Mo70  1  1.78085191  0.21769443  8.65243093  1
  Mo  Mo71  1  0.00000000  6.80346356  0.00000000  1
  Mo  Mo72  1  3.20718569  6.80346356  0.00000000  1
  Mo  Mo73  1  1.60359284  9.07129137  0.00000000  1
  Mo  Mo74  1  0.00000000  11.33913904  0.00000000  1
  Mo  Mo75  1  3.20718569  11.33913904  0.00000000  1
  Mo  Mo76  1  1.60359284  6.80346356  2.26781788  1
  Mo  Mo77  1  0.00000000  9.07129137  2.26781788  1
  Mo  Mo78  1  3.20718569  9.07129137  2.26781788  1
  Mo  Mo79  1  1.60359284  11.33913904  2.26781788  1
  Mo  Mo80  1  6.41437137  6.80346356  0.00000000  1
  Mo  Mo81  1  4.81077853  9.07129137  0.00000000  1
  Mo  Mo82  1  8.01796421  9.07129137  0.00000000  1
  Mo  Mo83  1  6.41437137  11.33913904  0.00000000  1
  Mo  Mo84  1  4.81077853  6.80346356  2.26781788  1
  Mo  Mo85  1  8.01796421  6.80346356  2.26781788  1
  Mo  Mo86  1  6.41437137  9.07129137  2.26781788  1
  Mo  Mo87  1  4.81077853  11.33913904  2.26781788  1
  Mo  Mo88  1  8.01796421  11.33913904  2.26781788  1
  Mo  Mo89  1  9.62155706  6.80346356  0.00000000  1
  Mo  Mo90  1  11.22514990  9.07129137  0.00000000  1
  Mo  Mo91  1  9.62155706  11.33913904  0.00000000  1
  Mo  Mo92  1  11.22514990  6.80346356  2.26781788  1
  Mo  Mo93  1  9.62155706  9.07129137  2.26781788  1
  Mo  Mo94  1  11.22514990  11.33913904  2.26781788  1
  Mo  Mo95  1  1.49153993  8.78297233  4.41902526  1
  Mo  Mo96  1  3.51380455  11.22614283  4.65884928  1
  Mo  Mo97  1  2.06303460  11.27092428  6.93048003  1
  Mo  Mo98  1  3.45233184  9.24690216  7.03207732  1
  Mo  Mo99  1  0.42541084  11.32245770  4.62151485  1
  Mo  Mo100  1  0.01772303  9.19103954  7.11365700  1
  Mo  Mo101  1  9.55120749  9.29685681  7.16066263  1
  Mo  Mo102  1  11.46494412  9.19854614  4.56910765  1
  Mo  Mo103  1  11.70295106  11.40169405  7.28902949  1
  Mo  Mo104  1  8.07278425  11.59998352  6.81029497  1
  Mo  Mo105  1  5.15605242  9.30852382  4.42378143  1
  Mo  Mo106  1  8.26506645  9.05021132  4.44519908  1
  Mo  Mo107  1  6.39541621  11.53742850  4.69611419  1
  Mo  Mo108  1  6.55136685  9.47071011  7.04980124  1
  Mo  Mo109  1  5.03209420  11.43734048  7.23499387  1
  Mo  Mo110  1  9.68190775  10.91714092  4.48373495  1
  Mo  Mo111  1  1.83624785  13.31627468  4.65069727  1
  Mo  Mo112  1  7.89489963  7.44475176  6.70656287  1
  Mo  Mo113  1  3.18878657  6.96871803  4.65278243  1
  Mo  Mo114  1  1.41732784  6.75374722  6.62281858  1
  Mo  Mo115  1  5.02676213  6.91448382  6.93734122  1
  Mo  Mo116  1  11.04860574  7.18006461  6.77734933  1
  Mo  Mo117  1  11.42929769  12.94034883  4.80342087  1
  Mo  Mo118  1  12.74156289  6.82858486  4.53543717  1
  Mo  Mo119  1  9.67828353  6.86426108  4.56725086  1
  Mo  Mo120  1  9.73874345  13.52270623  6.74488030  1
  Mo  Mo121  1  1.92379508  9.11878353  9.37191290  1
  Mo  Mo122  1  3.61460749  11.63562995  9.54003695  1
  Mo  Mo123  1  1.57722044  11.28631480  11.55410984  1
  Mo  Mo124  1  6.72070229  6.95054728  9.18075272  1
  Mo  Mo125  1  9.77745805  7.15755474  8.94976584  1
  Mo  Mo126  1  4.86389071  9.12971577  9.59305977  1
  Mo  Mo127  1  8.01953305  9.15352639  9.17600648  1
  Mo  Mo128  1  6.67296189  11.63354478  9.00265958  1
  Mo  Mo129  1  0.17088839  11.04393894  9.44691934  1
  Mo  Mo130  1  9.75677518  11.52720126  9.24045800  1
  Mo  Mo131  1  10.99707233  9.08425912  9.00947113  1
  Mo  Mo132  1  0.28501753  6.97114079  9.08573860  1
  Mo  Mo133  1  4.18327229  11.65191411  12.68039799  1
  Mo  Mo134  1  0.15626640  8.51169208  11.45749710  1
  Mo  Mo135  1  3.34257261  9.04147348  11.60107575  1
  Mo  Mo136  1  11.39106963  10.80722282  11.37577840  1
  Mo  Mo137  1  6.35732715  13.15690833  11.25543447  1
  Mo  Mo138  1  8.91172644  10.95318452  11.41897115  1
  Mo  Mo139  1  5.99502439  10.57745726  11.26427161  1
  Mo  Mo140  1  9.93065826  8.38461604  11.10192645  1
  Mo  Mo141  1  1.96918222  6.83001469  11.20896503  1
  Mo  Mo142  1  3.01767378  13.22800261  11.44746844  1
  Mo  Mo143  1  11.50426442  13.58138879  9.15794496  1
