# generated using pymatgen
data_Mo
_symmetry_space_group_name_H-M   'P 1'
_cell_length_a   12.82874274
_cell_length_b   13.60693648
_cell_length_c   29.78810234
_cell_angle_alpha   90.00000000
_cell_angle_beta   90.00000000
_cell_angle_gamma   90.00000000
_symmetry_Int_Tables_number   1
_chemical_formula_structural   Mo
_chemical_formula_sum   Mo144
_cell_volume   5199.80779529
_cell_formula_units_Z   144
loop_
 _symmetry_equiv_pos_site_id
 _symmetry_equiv_pos_as_xyz
  1  'x, y, z'
loop_
 _atom_site_type_symbol
 _atom_site_label
 _atom_site_symmetry_multiplicity
 _atom_site_fract_x
 _atom_site_fract_y
 _atom_site_fract_z
 _atom_site_occupancy
  Mo  Mo0  1  0.00000000  2.26781788  0.00000000  1
  Mo  Mo1  1  3.20718569  2.26781788  0.00000000  1
  Mo  Mo2  1  1.60359284  4.53564569  0.00000000  1
  Mo  Mo3  1  1.60359284  0.00000000  0.00000000  1
  Mo  Mo4  1  0.00000000  0.00000000  2.26781788  1
  Mo  Mo5  1  3.20718569  0.00000000  2.26781788  1
  Mo  Mo6  1  1.60359284  2.26781788  2.26781788  1
  Mo  Mo7  1  0.00000000  4.53564569  2.26781788  1
  Mo  Mo8  1  3.20718569  4.53564569  2.26781788  1
  Mo  Mo9  1  6.41437137  2.26781788  0.00000000  1
  Mo  Mo10  1  4.81077853  4.53564569  0.00000000  1
  Mo  Mo11  1  8.01796421  4.53564569  0.00000000  1
  Mo  Mo12  1  4.81077853  0.00000000  0.00000000  1
  Mo  Mo13  1  8.01796421  0.00000000  0.00000000  1
  Mo  Mo14  1  6.41437137  0.00000000  2.26781788  1
  Mo  Mo15  1  4.81077853  2.26781788  2.26781788  1
  Mo  Mo16  1  8.01796421  2.26781788  2.26781788  1
  Mo  Mo17  1  6.41437137  4.53564569  2.26781788  1
  Mo  Mo18  1  9.62155706  2.26781788  0.00000000  1
  Mo  Mo19  1  11.22514990  4.53564569  0.00000000  1
  Mo  Mo20  1  11.22514990  0.00000000  0.00000000  1
  Mo  Mo21  1  9.62155706  0.00000000  2.26781788  1
  Mo  Mo22  1  11.22514990  2.26781788  2.26781788  1
  Mo  Mo23  1  9.62155706  4.53564569  2.26781788  1
  Mo  Mo24  1  3.36121996  2.11087430  4.41407051  1
  Mo  Mo25  1  1.46802719  4.46685503  4.48003130  1
  Mo  Mo26  1  3.03226995  4.53369953  6.71447657  1
  Mo  Mo27  1  11.44627691  6.44446728  6.80226211  1
  Mo  Mo28  1  7.86251997  6.48193079  6.70135988  1
  Mo  Mo29  1  11.24997332  2.04731642  6.53694941  1
  Mo  Mo30  1  5.05303523  2.22399958  7.21478761  1
  Mo  Mo31  1  6.64373976  2.09257447  4.54668714  1
  Mo  Mo32  1  4.85035699  4.56153155  4.68099177  1
  Mo  Mo33  1  8.04343304  4.56813458  4.62069072  1
  Mo  Mo34  1  6.41989210  4.24803163  6.85823395  1
  Mo  Mo35  1  8.06606207  2.15828703  6.57806692  1
  Mo  Mo36  1  -0.09692046  2.17321086  4.53074058  1
  Mo  Mo37  1  12.96964046  4.48551231  6.62010786  1
  Mo  Mo38  1  9.78727820  2.28134168  4.28549513  1
  Mo  Mo39  1  11.09527377  4.24299744  4.51318546  1
  Mo  Mo40  1  9.68872923  4.33534056  6.61561979  1
  Mo  Mo41  1  9.65850423  6.68478776  4.71712473  1
  Mo  Mo42  1  12.80620308  6.68531402  4.25792128  1
  Mo  Mo43  1  1.63703495  6.75001378  6.87168825  1
  Mo  Mo44  1  8.12711775  0.18187225  4.42187499  1
  Mo  Mo45  1  6.45686906  6.72042426  4.61207203  1
  Mo  Mo46  1  3.41068807  0.11723306  6.86478734  1
  Mo  Mo47  1  1.60928237  2.34640882  7.00064094  1
  Mo  Mo48  1  3.92574422  1.72168281  9.64922027  1
  Mo  Mo49  1  0.99814966  5.13395958  9.28836720  1
  Mo  Mo50  1  1.88708621  2.55918524  11.20807139  1
  Mo  Mo51  1  12.90212077  4.40476669  11.92646112  1
  Mo  Mo52  1  6.33699181  6.56599281  9.08192572  1
  Mo  Mo53  1  7.18518817  5.12623453  11.16825462  1
  Mo  Mo54  1  9.34251204  6.78484600  8.92282747  1
  Mo  Mo55  1  4.96229075  4.52481275  9.27910310  1
  Mo  Mo56  1  6.71857740  1.62919075  9.35677061  1
  Mo  Mo57  1  8.17711211  4.05343588  8.98066603  1
  Mo  Mo58  1  12.53056384  2.31139787  9.03058096  1
  Mo  Mo59  1  9.68921577  1.86345432  9.00810088  1
  Mo  Mo60  1  11.03996720  4.53951814  9.24510495  1
  Mo  Mo61  1  9.82103805  4.61010601  11.50416512  1
  Mo  Mo62  1  11.00044831  2.51144484  11.69927719  1
  Mo  Mo63  1  4.80507907  6.07126208  11.55430843  1
  Mo  Mo64  1  2.81155997  4.53451374  10.75449788  1
  Mo  Mo65  1  5.66406865  3.08443884  11.13290607  1
  Mo  Mo66  1  4.30913695  1.40791480  12.82685616  1
  Mo  Mo67  1  6.05605029  0.23251500  11.61686344  1
  Mo  Mo68  1  8.58509989  1.68039650  12.05315985  1
  Mo  Mo69  1  3.15761828  6.49695392  8.92960923  1
  Mo  Mo70  1  0.00000000  6.80346356  0.00000000  1
  Mo  Mo71  1  3.20718569  6.80346356  0.00000000  1
  Mo  Mo72  1  1.60359284  9.07129137  0.00000000  1
  Mo  Mo73  1  0.00000000  11.33913904  0.00000000  1
  Mo  Mo74  1  3.20718569  11.33913904  0.00000000  1
  Mo  Mo75  1  1.60359284  6.80346356  2.26781788  1
  Mo  Mo76  1  0.00000000  9.07129137  2.26781788  1
  Mo  Mo77  1  3.20718569  9.07129137  2.26781788  1
  Mo  Mo78  1  1.60359284  11.33913904  2.26781788  1
  Mo  Mo79  1  6.41437137  6.80346356  0.00000000  1
  Mo  Mo80  1  4.81077853  9.07129137  0.00000000  1
  Mo  Mo81  1  8.01796421  9.07129137  0.00000000  1
  Mo  Mo82  1  6.41437137  11.33913904  0.00000000  1
  Mo  Mo83  1  4.81077853  6.80346356  2.26781788  1
  Mo  Mo84  1  8.01796421  6.80346356  2.26781788  1
  Mo  Mo85  1  6.41437137  9.07129137  2.26781788  1
  Mo  Mo86  1  4.81077853  11.33913904  2.26781788  1
  Mo  Mo87  1  8.01796421  11.33913904  2.26781788  1
  Mo  Mo88  1  9.62155706  6.80346356  0.00000000  1
  Mo  Mo89  1  11.22514990  9.07129137  0.00000000  1
  Mo  Mo90  1  9.62155706  11.33913904  0.00000000  1
  Mo  Mo91  1  11.22514990  6.80346356  2.26781788  1
  Mo  Mo92  1  9.62155706  9.07129137  2.26781788  1
  Mo  Mo93  1  11.22514990  11.33913904  2.26781788  1
  Mo  Mo94  1  1.32461733  8.73120061  4.67487528  1
  Mo  Mo95  1  3.31037167  11.20231235  5.00092591  1
  Mo  Mo96  1  1.44830747  11.44250375  6.84578253  1
  Mo  Mo97  1  2.96626944  8.84361097  6.87986012  1
  Mo  Mo98  1  13.03934462  11.39116892  4.71262673  1
  Mo  Mo99  1  9.62754446  13.46094557  6.82858486  1
  Mo  Mo100  1  1.59481528  13.35589286  4.34981757  1
  Mo  Mo101  1  11.37538123  11.23666796  7.08168444  1
  Mo  Mo102  1  7.93716895  11.27658402  6.69989033  1
  Mo  Mo103  1  4.55658672  8.88486750  4.65499668  1
  Mo  Mo104  1  7.70744310  9.26126003  4.57175879  1
  Mo  Mo105  1  6.40990315  11.61040935  4.49427994  1
  Mo  Mo106  1  6.20150559  8.83512137  6.70213437  1
  Mo  Mo107  1  4.57938455  11.03301664  7.07040468  1
  Mo  Mo108  1  9.41056793  8.87902903  6.47452348  1
  Mo  Mo109  1  10.96758211  9.03394702  4.55145324  1
  Mo  Mo110  1  9.69262154  11.32692591  4.37264519  1
  Mo  Mo111  1  12.65666680  8.67999486  7.08980666  1
  Mo  Mo112  1  -0.06642926  13.69140618  6.83065017  1
  Mo  Mo113  1  3.11934057  6.56805812  4.46788768  1
  Mo  Mo114  1  4.66509485  13.67502273  4.79593412  1
  Mo  Mo115  1  11.15326128  13.35996390  4.54134514  1
  Mo  Mo116  1  4.68453655  6.55233000  6.90182388  1
  Mo  Mo117  1  6.44794256  13.61256701  7.01019299  1
  Mo  Mo118  1  1.68481507  8.88501644  9.51591852  1
  Mo  Mo119  1  2.89170982  11.20936220  9.02742342  1
  Mo  Mo120  1  10.22744706  12.77095382  11.36614692  1
  Mo  Mo121  1  1.84941419  10.79083937  11.28700986  1
  Mo  Mo122  1  12.64236851  12.52301752  11.31779090  1
  Mo  Mo123  1  4.80723374  8.85728371  9.12525748  1
  Mo  Mo124  1  7.85869716  8.93489165  8.94457278  1
  Mo  Mo125  1  6.52567958  11.04493188  8.93356111  1
  Mo  Mo126  1  9.80426735  10.07552774  11.64933248  1
  Mo  Mo127  1  5.01002121  13.14727685  9.02356090  1
  Mo  Mo128  1  12.65011342  11.38531059  9.13151298  1
  Mo  Mo129  1  9.45739482  7.63439275  11.13975734  1
  Mo  Mo130  1  9.51384328  11.31381915  9.49690378  1
  Mo  Mo131  1  11.04324389  9.41774686  9.06002154  1
  Mo  Mo132  1  4.93454809  11.16696380  11.74644169  1
  Mo  Mo133  1  5.98953345  8.35888904  11.01643459  1
  Mo  Mo134  1  3.55992646  8.83369154  11.75210143  1
  Mo  Mo135  1  11.98851967  9.11278620  11.23905101  1
  Mo  Mo136  1  11.27261227  13.63103563  9.28936014  1
  Mo  Mo137  1  7.86007734  11.09090485  11.74534946  1
  Mo  Mo138  1  1.63433416  13.63461020  8.92235086  1
  Mo  Mo139  1  1.45292462  7.18752157  11.34976346  1
  Mo  Mo140  1  3.54716723  13.21042763  11.09586953  1
  Mo  Mo141  1  8.27092478  13.36651728  9.80804051  1
  Mo  Mo142  1  11.52044929  7.13621652  12.78852880  1
  Mo  Mo143  1  11.85695555  6.94378538  10.01108614  1
