# generated using pymatgen
data_Mo
_symmetry_space_group_name_H-M   'P 1'
_cell_length_a   12.82874274
_cell_length_b   13.60693648
_cell_length_c   29.78810234
_cell_angle_alpha   90.00000000
_cell_angle_beta   90.00000000
_cell_angle_gamma   90.00000000
_symmetry_Int_Tables_number   1
_chemical_formula_structural   Mo
_chemical_formula_sum   Mo144
_cell_volume   5199.80779529
_cell_formula_units_Z   144
loop_
 _symmetry_equiv_pos_site_id
 _symmetry_equiv_pos_as_xyz
  1  'x, y, z'
loop_
 _atom_site_type_symbol
 _atom_site_label
 _atom_site_symmetry_multiplicity
 _atom_site_fract_x
 _atom_site_fract_y
 _atom_site_fract_z
 _atom_site_occupancy
  Mo  Mo0  1  0.00000000  2.26781788  0.00000000  1
  Mo  Mo1  1  3.20718569  2.26781788  0.00000000  1
  Mo  Mo2  1  1.60359284  4.53564569  0.00000000  1
  Mo  Mo3  1  1.60359284  0.00000000  0.00000000  1
  Mo  Mo4  1  0.00000000  0.00000000  2.26781788  1
  Mo  Mo5  1  3.20718569  0.00000000  2.26781788  1
  Mo  Mo6  1  1.60359284  2.26781788  2.26781788  1
  Mo  Mo7  1  0.00000000  4.53564569  2.26781788  1
  Mo  Mo8  1  3.20718569  4.53564569  2.26781788  1
  Mo  Mo9  1  6.41437137  2.26781788  0.00000000  1
  Mo  Mo10  1  4.81077853  4.53564569  0.00000000  1
  Mo  Mo11  1  8.01796421  4.53564569  0.00000000  1
  Mo  Mo12  1  4.81077853  0.00000000  0.00000000  1
  Mo  Mo13  1  8.01796421  0.00000000  0.00000000  1
  Mo  Mo14  1  6.41437137  0.00000000  2.26781788  1
  Mo  Mo15  1  4.81077853  2.26781788  2.26781788  1
  Mo  Mo16  1  8.01796421  2.26781788  2.26781788  1
  Mo  Mo17  1  6.41437137  4.53564569  2.26781788  1
  Mo  Mo18  1  9.62155706  2.26781788  0.00000000  1
  Mo  Mo19  1  11.22514990  4.53564569  0.00000000  1
  Mo  Mo20  1  11.22514990  0.00000000  0.00000000  1
  Mo  Mo21  1  9.62155706  0.00000000  2.26781788  1
  Mo  Mo22  1  11.22514990  2.26781788  2.26781788  1
  Mo  Mo23  1  9.62155706  4.53564569  2.26781788  1
  Mo  Mo24  1  3.53072419  2.22524075  4.49709988  1
  Mo  Mo25  1  1.62097916  4.13734897  4.21102488  1
  Mo  Mo26  1  3.32619908  4.27590336  6.59441066  1
  Mo  Mo27  1  0.09091726  4.40842070  6.71208359  1
  Mo  Mo28  1  1.71336200  2.35571264  6.17562966  1
  Mo  Mo29  1  1.50948230  -0.09565784  4.38232632  1
  Mo  Mo30  1  9.61855839  2.19738887  4.39055777  1
  Mo  Mo31  1  11.18642536  4.58440881  4.54497929  1
  Mo  Mo32  1  8.30339381  1.99884124  6.99946928  1
  Mo  Mo33  1  4.64295236  6.74088869  7.37911864  1
  Mo  Mo34  1  6.60807347  2.54510539  4.59210407  1
  Mo  Mo35  1  4.97863448  4.44427565  4.26923083  1
  Mo  Mo36  1  6.18489376  4.42440698  6.78270126  1
  Mo  Mo37  1  8.01584926  4.72662714  4.41010869  1
  Mo  Mo38  1  4.78174506  1.98352023  6.90137706  1
  Mo  Mo39  1  12.70859739  2.03029748  4.45294398  1
  Mo  Mo40  1  9.46881360  4.55892012  6.97876655  1
  Mo  Mo41  1  11.34440160  2.19275186  6.70898563  1
  Mo  Mo42  1  10.94464527  0.03005014  4.76660277  1
  Mo  Mo43  1  0.01678301  6.60730891  4.32341539  1
  Mo  Mo44  1  8.00289143  -0.09405117  4.66383382  1
  Mo  Mo45  1  1.74512605  6.56161396  6.83559500  1
  Mo  Mo46  1  3.21808813  -0.25487693  6.73446439  1
  Mo  Mo47  1  6.12296429  6.83706454  4.74154105  1
  Mo  Mo48  1  3.22911966  6.78593823  4.50627462  1
  Mo  Mo49  1  3.18105159  2.15249820  9.25056610  1
  Mo  Mo50  1  2.01396367  4.27562534  9.04145362  1
  Mo  Mo51  1  4.45322201  4.25091114  9.12018358  1
  Mo  Mo52  1  6.49522621  2.10569117  9.15520445  1
  Mo  Mo53  1  0.49003116  6.58541465  9.10608387  1
  Mo  Mo54  1  5.15670776  6.20010555  10.80285390  1
  Mo  Mo55  1  3.04316246  6.87229394  9.23723096  1
  Mo  Mo56  1  10.09747164  4.35351130  11.38620424  1
  Mo  Mo57  1  4.76338566  1.58825197  10.90234616  1
  Mo  Mo58  1  8.45485638  1.56159162  11.25245566  1
  Mo  Mo59  1  11.18136139  2.27870046  11.66839686  1
  Mo  Mo60  1  8.26788639  3.73172438  9.19021540  1
  Mo  Mo61  1  10.30787493  6.58882043  9.35594648  1
  Mo  Mo62  1  0.05521741  2.22221229  9.34810228  1
  Mo  Mo63  1  10.24085170  1.91766866  9.26296788  1
  Mo  Mo64  1  11.70344753  4.38133339  8.92645169  1
  Mo  Mo65  1  8.33143434  6.45788186  11.29187525  1
  Mo  Mo66  1  2.47703958  1.30424227  12.05167044  1
  Mo  Mo67  1  0.54738518  4.25589569  11.16775815  1
  Mo  Mo68  1  0.28145288  0.07075340  11.59730259  1
  Mo  Mo69  1  3.38558663  4.21377531  11.66233995  1
  Mo  Mo70  1  6.72930112  4.19403573  11.58379865  1
  Mo  Mo71  1  6.84977413  6.01202347  8.85445384  1
  Mo  Mo72  1  12.13994252  6.64582493  11.16021183  1
  Mo  Mo73  1  0.00000000  6.80346356  0.00000000  1
  Mo  Mo74  1  3.20718569  6.80346356  0.00000000  1
  Mo  Mo75  1  1.60359284  9.07129137  0.00000000  1
  Mo  Mo76  1  0.00000000  11.33913904  0.00000000  1
  Mo  Mo77  1  3.20718569  11.33913904  0.00000000  1
  Mo  Mo78  1  1.60359284  6.80346356  2.26781788  1
  Mo  Mo79  1  0.00000000  9.07129137  2.26781788  1
  Mo  Mo80  1  3.20718569  9.07129137  2.26781788  1
  Mo  Mo81  1  1.60359284  11.33913904  2.26781788  1
  Mo  Mo82  1  6.41437137  6.80346356  0.00000000  1
  Mo  Mo83  1  4.81077853  9.07129137  0.00000000  1
  Mo  Mo84  1  8.01796421  9.07129137  0.00000000  1
  Mo  Mo85  1  6.41437137  11.33913904  0.00000000  1
  Mo  Mo86  1  4.81077853  6.80346356  2.26781788  1
  Mo  Mo87  1  8.01796421  6.80346356  2.26781788  1
  Mo  Mo88  1  6.41437137  9.07129137  2.26781788  1
  Mo  Mo89  1  4.81077853  11.33913904  2.26781788  1
  Mo  Mo90  1  8.01796421  11.33913904  2.26781788  1
  Mo  Mo91  1  9.62155706  6.80346356  0.00000000  1
  Mo  Mo92  1  11.22514990  9.07129137  0.00000000  1
  Mo  Mo93  1  9.62155706  11.33913904  0.00000000  1
  Mo  Mo94  1  11.22514990  6.80346356  2.26781788  1
  Mo  Mo95  1  9.62155706  9.07129137  2.26781788  1
  Mo  Mo96  1  11.22514990  11.33913904  2.26781788  1
  Mo  Mo97  1  1.56228667  8.86415484  4.42909364  1
  Mo  Mo98  1  2.92449659  11.32920967  4.54384734  1
  Mo  Mo99  1  3.25219551  9.17326597  7.32998813  1
  Mo  Mo100  1  1.13251386  11.43406379  7.09352024  1
  Mo  Mo101  1  9.74428404  6.80058405  4.57282124  1
  Mo  Mo102  1  9.85250421  8.95803701  6.93168148  1
  Mo  Mo103  1  4.83483739  13.21688171  4.62576462  1
  Mo  Mo104  1  8.11499399  11.23458280  7.09691609  1
  Mo  Mo105  1  4.57335742  9.14062814  4.50326602  1
  Mo  Mo106  1  7.78038424  9.03653858  4.48090508  1
  Mo  Mo107  1  6.33811383  11.23736302  4.67571927  1
  Mo  Mo108  1  6.36174572  8.69188031  7.20386531  1
  Mo  Mo109  1  8.15514835  6.78311829  6.68230542  1
  Mo  Mo110  1  0.25587980  9.00184537  6.95801417  1
  Mo  Mo111  1  9.65283456  11.24212912  4.44400755  1
  Mo  Mo112  1  6.41089609  13.74254243  6.50441087  1
  Mo  Mo113  1  11.27747766  9.07393258  4.56127338  1
  Mo  Mo114  1  11.05654924  11.35284156  6.72317470  1
  Mo  Mo115  1  13.01313109  11.23825666  4.69636243  1
  Mo  Mo116  1  -0.07190639  13.85454569  6.90861556  1
  Mo  Mo117  1  11.83173496  6.74428453  6.79721799  1
  Mo  Mo118  1  0.90838322  9.10111919  9.77245365  1
  Mo  Mo119  1  3.58991315  11.13270749  9.51501494  1
  Mo  Mo120  1  11.72151898  11.19407098  12.19703638  1
  Mo  Mo121  1  5.52841363  11.18225503  11.54437906  1
  Mo  Mo122  1  4.91219709  8.99003936  9.22517671  1
  Mo  Mo123  1  6.79980956  10.64686354  9.66789741  1
  Mo  Mo124  1  8.24099766  8.55376281  8.69542509  1
  Mo  Mo125  1  12.40317005  11.16120477  9.46336237  1
  Mo  Mo126  1  9.25922451  10.65500562  9.49618886  1
  Mo  Mo127  1  11.11493392  9.14953479  9.00768384  1
  Mo  Mo128  1  0.79674237  9.14296154  13.19950532  1
  Mo  Mo129  1  1.52375080  13.60541786  9.33770623  1
  Mo  Mo130  1  6.69944351  13.76458562  11.89716949  1
  Mo  Mo131  1  3.21844559  9.08679111  11.25990268  1
  Mo  Mo132  1  1.56200865  10.83681234  11.32692591  1
  Mo  Mo133  1  9.77377426  9.08874720  11.41787892  1
  Mo  Mo134  1  7.15825972  8.70796589  11.06389697  1
  Mo  Mo135  1  8.79623796  11.91136848  11.86470046  1
  Mo  Mo136  1  10.59225202  13.29333784  10.22019862  1
  Mo  Mo137  1  3.41509671  12.96666165  11.26049845  1
  Mo  Mo138  1  7.78315453  13.28231625  9.45501178  1
  Mo  Mo139  1  5.25899017  13.27804662  9.23808488  1
  Mo  Mo140  1  10.55233596  13.46005192  12.88752460  1
  Mo  Mo141  1  1.85105254  6.76367659  12.10727490  1
  Mo  Mo142  1  4.95495294  11.24808674  7.42230146  1
  Mo  Mo143  1  9.95677250  13.37197843  7.70497069  1
