# generated using pymatgen
data_Mo
_symmetry_space_group_name_H-M   'P 1'
_cell_length_a   12.82874274
_cell_length_b   13.60693648
_cell_length_c   29.78810234
_cell_angle_alpha   90.00000000
_cell_angle_beta   90.00000000
_cell_angle_gamma   90.00000000
_symmetry_Int_Tables_number   1
_chemical_formula_structural   Mo
_chemical_formula_sum   Mo144
_cell_volume   5199.80779529
_cell_formula_units_Z   144
loop_
 _symmetry_equiv_pos_site_id
 _symmetry_equiv_pos_as_xyz
  1  'x, y, z'
loop_
 _atom_site_type_symbol
 _atom_site_label
 _atom_site_symmetry_multiplicity
 _atom_site_fract_x
 _atom_site_fract_y
 _atom_site_fract_z
 _atom_site_occupancy
  Mo  Mo0  1  0.00000000  2.26781788  0.00000000  1
  Mo  Mo1  1  3.20718569  2.26781788  0.00000000  1
  Mo  Mo2  1  1.60359284  4.53564569  0.00000000  1
  Mo  Mo3  1  1.60359284  0.00000000  0.00000000  1
  Mo  Mo4  1  0.00000000  0.00000000  2.26781788  1
  Mo  Mo5  1  3.20718569  0.00000000  2.26781788  1
  Mo  Mo6  1  1.60359284  2.26781788  2.26781788  1
  Mo  Mo7  1  0.00000000  4.53564569  2.26781788  1
  Mo  Mo8  1  3.20718569  4.53564569  2.26781788  1
  Mo  Mo9  1  6.41437137  2.26781788  0.00000000  1
  Mo  Mo10  1  4.81077853  4.53564569  0.00000000  1
  Mo  Mo11  1  8.01796421  4.53564569  0.00000000  1
  Mo  Mo12  1  4.81077853  0.00000000  0.00000000  1
  Mo  Mo13  1  8.01796421  0.00000000  0.00000000  1
  Mo  Mo14  1  6.41437137  0.00000000  2.26781788  1
  Mo  Mo15  1  4.81077853  2.26781788  2.26781788  1
  Mo  Mo16  1  8.01796421  2.26781788  2.26781788  1
  Mo  Mo17  1  6.41437137  4.53564569  2.26781788  1
  Mo  Mo18  1  9.62155706  2.26781788  0.00000000  1
  Mo  Mo19  1  11.22514990  4.53564569  0.00000000  1
  Mo  Mo20  1  11.22514990  0.00000000  0.00000000  1
  Mo  Mo21  1  9.62155706  0.00000000  2.26781788  1
  Mo  Mo22  1  11.22514990  2.26781788  2.26781788  1
  Mo  Mo23  1  9.62155706  4.53564569  2.26781788  1
  Mo  Mo24  1  2.99093399  1.99963559  4.28260569  1
  Mo  Mo25  1  1.54073995  4.53888266  4.50564907  1
  Mo  Mo26  1  3.21192199  4.70233991  6.79773432  1
  Mo  Mo27  1  1.56913794  2.49600467  6.81398869  1
  Mo  Mo28  1  -0.23694450  2.35188983  4.58867844  1
  Mo  Mo29  1  11.29266960  4.49757649  4.50473556  1
  Mo  Mo30  1  9.47955717  2.41089013  4.45170281  1
  Mo  Mo31  1  10.93114133  2.37928496  6.77312935  1
  Mo  Mo32  1  12.81374940  4.38386537  6.85003230  1
  Mo  Mo33  1  8.09051810  2.78220876  6.54439644  1
  Mo  Mo34  1  6.17716871  2.31725620  4.49677221  1
  Mo  Mo35  1  4.50426888  4.46197971  4.54052100  1
  Mo  Mo36  1  5.67813856  4.00349117  7.17900217  1
  Mo  Mo37  1  8.09220609  4.79203188  4.41240238  1
  Mo  Mo38  1  4.52551773  1.76455782  7.04154001  1
  Mo  Mo39  1  9.66414411  4.74401346  6.98172550  1
  Mo  Mo40  1  11.18205644  0.26434558  4.66962264  1
  Mo  Mo41  1  7.97274587  0.15267296  4.53365981  1
  Mo  Mo42  1  3.36738610  -0.46573499  6.84979399  1
  Mo  Mo43  1  11.35621755  7.15707813  6.68477783  1
  Mo  Mo44  1  3.28318506  6.78130121  4.63142436  1
  Mo  Mo45  1  6.58210817  6.51411187  4.57371488  1
  Mo  Mo46  1  1.45205084  -0.06813035  4.61149612  1
  Mo  Mo47  1  3.34109313  3.05667633  8.81282994  1
  Mo  Mo48  1  1.41143972  4.50325609  9.10194333  1
  Mo  Mo49  1  8.13567686  6.06627754  11.23627079  1
  Mo  Mo50  1  5.21108098  4.30775677  9.87435875  1
  Mo  Mo51  1  6.87749693  2.03579835  9.04844390  1
  Mo  Mo52  1  7.19058974  0.15957983  11.22892306  1
  Mo  Mo53  1  7.96398817  4.49135078  8.55224362  1
  Mo  Mo54  1  0.40972145  4.71159408  11.39206256  1
  Mo  Mo55  1  8.28474646  -0.34256516  9.25784433  1
  Mo  Mo56  1  12.59897718  2.31241067  9.07051688  1
  Mo  Mo57  1  9.86868908  2.52804674  9.01485285  1
  Mo  Mo58  1  11.12009719  4.83581046  9.09543959  1
  Mo  Mo59  1  1.71745290  2.49802033  11.13906228  1
  Mo  Mo60  1  5.33206039  -0.07563477  9.55908148  1
  Mo  Mo61  1  3.09793286  5.22734528  11.33794751  1
  Mo  Mo62  1  5.91491426  4.70814859  12.43673131  1
  Mo  Mo63  1  4.52061262  2.28441978  11.19208510  1
  Mo  Mo64  1  7.85500343  3.31574346  11.36912573  1
  Mo  Mo65  1  10.63892004  4.30090551  11.57744385  1
  Mo  Mo66  1  12.05663513  2.10640608  11.45005007  1
  Mo  Mo67  1  9.47723370  0.83279094  11.83928127  1
  Mo  Mo68  1  11.13429619  0.21599254  9.04163235  1
  Mo  Mo69  1  9.27376110  6.61505382  9.12206023  1
  Mo  Mo70  1  0.00000000  6.80346356  0.00000000  1
  Mo  Mo71  1  3.20718569  6.80346356  0.00000000  1
  Mo  Mo72  1  1.60359284  9.07129137  0.00000000  1
  Mo  Mo73  1  0.00000000  11.33913904  0.00000000  1
  Mo  Mo74  1  3.20718569  11.33913904  0.00000000  1
  Mo  Mo75  1  1.60359284  6.80346356  2.26781788  1
  Mo  Mo76  1  0.00000000  9.07129137  2.26781788  1
  Mo  Mo77  1  3.20718569  9.07129137  2.26781788  1
  Mo  Mo78  1  1.60359284  11.33913904  2.26781788  1
  Mo  Mo79  1  6.41437137  6.80346356  0.00000000  1
  Mo  Mo80  1  4.81077853  9.07129137  0.00000000  1
  Mo  Mo81  1  8.01796421  9.07129137  0.00000000  1
  Mo  Mo82  1  6.41437137  11.33913904  0.00000000  1
  Mo  Mo83  1  4.81077853  6.80346356  2.26781788  1
  Mo  Mo84  1  8.01796421  6.80346356  2.26781788  1
  Mo  Mo85  1  6.41437137  9.07129137  2.26781788  1
  Mo  Mo86  1  4.81077853  11.33913904  2.26781788  1
  Mo  Mo87  1  8.01796421  11.33913904  2.26781788  1
  Mo  Mo88  1  9.62155706  6.80346356  0.00000000  1
  Mo  Mo89  1  11.22514990  9.07129137  0.00000000  1
  Mo  Mo90  1  9.62155706  11.33913904  0.00000000  1
  Mo  Mo91  1  11.22514990  6.80346356  2.26781788  1
  Mo  Mo92  1  9.62155706  9.07129137  2.26781788  1
  Mo  Mo93  1  11.22514990  11.33913904  2.26781788  1
  Mo  Mo94  1  1.81106698  9.01918205  4.54383741  1
  Mo  Mo95  1  3.19130863  11.66899262  5.00518561  1
  Mo  Mo96  1  3.42610838  9.10245965  6.77383433  1
  Mo  Mo97  1  1.51551935  11.55013809  7.22402192  1
  Mo  Mo98  1  -0.14414860  11.68577325  4.66457852  1
  Mo  Mo99  1  0.11902929  9.28772179  6.62757475  1
  Mo  Mo100  1  0.07592332  13.93527145  6.81391919  1
  Mo  Mo101  1  5.36033923  11.33864257  7.42135817  1
  Mo  Mo102  1  8.24356937  11.27191722  6.90952907  1
  Mo  Mo103  1  4.95431746  8.78949592  4.58019876  1
  Mo  Mo104  1  8.26308058  8.83366175  4.63035199  1
  Mo  Mo105  1  6.74936837  10.85091204  4.48283138  1
  Mo  Mo106  1  6.55006611  9.08988908  7.00030334  1
  Mo  Mo107  1  1.56632793  7.08797966  6.46448489  1
  Mo  Mo108  1  0.01274127  6.75518698  4.49789423  1
  Mo  Mo109  1  5.10915602  6.56711483  6.70072440  1
  Mo  Mo110  1  9.85914696  9.01597486  6.51818291  1
  Mo  Mo111  1  11.00938474  11.58280571  6.49583190  1
  Mo  Mo112  1  9.41639647  11.20042577  4.56735016  1
  Mo  Mo113  1  11.59591248  9.22324048  4.51023643  1
  Mo  Mo114  1  6.60799404  13.23515175  6.68151107  1
  Mo  Mo115  1  9.75168142  6.74956696  4.40878809  1
  Mo  Mo116  1  9.38587359  13.85404922  6.96638462  1
  Mo  Mo117  1  7.94466562  6.52260148  6.36776292  1
  Mo  Mo118  1  4.82858188  13.81542398  4.63540604  1
  Mo  Mo119  1  1.66820324  9.10099011  8.88595973  1
  Mo  Mo120  1  3.10391033  11.71794440  9.54292639  1
  Mo  Mo121  1  9.41163037  8.80341690  11.30061309  1
  Mo  Mo122  1  1.64883104  11.07908890  11.58360006  1
  Mo  Mo123  1  11.99020766  9.40862177  11.46017803  1
  Mo  Mo124  1  5.11945277  9.36797094  9.37753292  1
  Mo  Mo125  1  7.21260315  11.35353662  9.54433636  1
  Mo  Mo126  1  8.63516376  9.07544185  8.82117060  1
  Mo  Mo127  1  6.69269154  6.96087383  9.24789510  1
  Mo  Mo128  1  5.20590778  7.01323138  11.54596776  1
  Mo  Mo129  1  12.90827697  11.48480286  9.08079377  1
  Mo  Mo130  1  10.03541309  11.42214855  9.98715636  1
  Mo  Mo131  1  11.55798229  8.68386731  8.97668436  1
  Mo  Mo132  1  11.66819827  12.41280154  11.36445892  1
  Mo  Mo133  1  1.15616562  13.75336544  9.66768890  1
  Mo  Mo134  1  2.77678732  8.41816737  11.31223045  1
  Mo  Mo135  1  9.06270247  11.55033668  12.14163051  1
  Mo  Mo136  1  4.36526767  10.73275257  11.53315888  1
  Mo  Mo137  1  6.99681814  8.97670422  11.10828124  1
  Mo  Mo138  1  3.51806425  13.37078691  11.31719513  1
  Mo  Mo139  1  3.73316414  6.59492699  9.31694392  1
  Mo  Mo140  1  0.74081720  6.84932731  9.73282555  1
  Mo  Mo141  1  1.04674399  7.22829155  12.73014412  1
  Mo  Mo142  1  1.18997511  13.54455084  12.22612943  1
  Mo  Mo143  1  11.12238094  7.04624653  11.25027120  1
