# generated using pymatgen
data_Mo
_symmetry_space_group_name_H-M   'P 1'
_cell_length_a   12.82874274
_cell_length_b   13.60693648
_cell_length_c   29.78810234
_cell_angle_alpha   90.00000000
_cell_angle_beta   90.00000000
_cell_angle_gamma   90.00000000
_symmetry_Int_Tables_number   1
_chemical_formula_structural   Mo
_chemical_formula_sum   Mo144
_cell_volume   5199.80779529
_cell_formula_units_Z   144
loop_
 _symmetry_equiv_pos_site_id
 _symmetry_equiv_pos_as_xyz
  1  'x, y, z'
loop_
 _atom_site_type_symbol
 _atom_site_label
 _atom_site_symmetry_multiplicity
 _atom_site_fract_x
 _atom_site_fract_y
 _atom_site_fract_z
 _atom_site_occupancy
  Mo  Mo0  1  0.00000000  2.26781788  0.00000000  1
  Mo  Mo1  1  3.20718569  2.26781788  0.00000000  1
  Mo  Mo2  1  1.60359284  4.53564569  0.00000000  1
  Mo  Mo3  1  1.60359284  0.00000000  0.00000000  1
  Mo  Mo4  1  0.00000000  0.00000000  2.26781788  1
  Mo  Mo5  1  3.20718569  0.00000000  2.26781788  1
  Mo  Mo6  1  1.60359284  2.26781788  2.26781788  1
  Mo  Mo7  1  0.00000000  4.53564569  2.26781788  1
  Mo  Mo8  1  3.20718569  4.53564569  2.26781788  1
  Mo  Mo9  1  6.41437137  2.26781788  0.00000000  1
  Mo  Mo10  1  4.81077853  4.53564569  0.00000000  1
  Mo  Mo11  1  8.01796421  4.53564569  0.00000000  1
  Mo  Mo12  1  4.81077853  0.00000000  0.00000000  1
  Mo  Mo13  1  8.01796421  0.00000000  0.00000000  1
  Mo  Mo14  1  6.41437137  0.00000000  2.26781788  1
  Mo  Mo15  1  4.81077853  2.26781788  2.26781788  1
  Mo  Mo16  1  8.01796421  2.26781788  2.26781788  1
  Mo  Mo17  1  6.41437137  4.53564569  2.26781788  1
  Mo  Mo18  1  9.62155706  2.26781788  0.00000000  1
  Mo  Mo19  1  11.22514990  4.53564569  0.00000000  1
  Mo  Mo20  1  11.22514990  0.00000000  0.00000000  1
  Mo  Mo21  1  9.62155706  0.00000000  2.26781788  1
  Mo  Mo22  1  11.22514990  2.26781788  2.26781788  1
  Mo  Mo23  1  9.62155706  4.53564569  2.26781788  1
  Mo  Mo24  1  3.02437610  2.26923778  4.52669933  1
  Mo  Mo25  1  1.58919526  4.70334277  4.44083016  1
  Mo  Mo26  1  3.08947303  4.45953708  6.71484396  1
  Mo  Mo27  1  1.59316701  2.12920391  7.01316187  1
  Mo  Mo28  1  -0.03022162  0.02763472  7.33663088  1
  Mo  Mo29  1  3.24660527  -0.14568964  6.61736736  1
  Mo  Mo30  1  6.29947866  4.33756473  6.59964344  1
  Mo  Mo31  1  7.79611236  2.19197737  7.00949794  1
  Mo  Mo32  1  6.25286028  2.10910687  4.24003849  1
  Mo  Mo33  1  4.62040277  4.21447037  4.71209054  1
  Mo  Mo34  1  7.71547596  4.42588646  4.84296954  1
  Mo  Mo35  1  4.73722177  2.04263968  6.65247760  1
  Mo  Mo36  1  7.97015431  6.79074404  6.60326766  1
  Mo  Mo37  1  1.58151986  -0.05389710  4.62409649  1
  Mo  Mo38  1  11.59740188  4.28838458  4.59265018  1
  Mo  Mo39  1  12.88156698  2.17961531  4.80535709  1
  Mo  Mo40  1  0.05714838  4.60145753  6.62172635  1
  Mo  Mo41  1  9.60282034  2.31356247  4.60868611  1
  Mo  Mo42  1  11.08484794  2.18356720  7.03672426  1
  Mo  Mo43  1  9.71655131  4.35473261  6.83666737  1
  Mo  Mo44  1  9.61742644  6.52868818  4.24189528  1
  Mo  Mo45  1  11.65231129  0.00134480  4.72733212  1
  Mo  Mo46  1  12.85654497  6.67683434  4.40240350  1
  Mo  Mo47  1  3.28639225  6.78299914  4.60399945  1
  Mo  Mo48  1  6.15321908  6.53128967  4.68910406  1
  Mo  Mo49  1  3.16980162  2.20434936  9.09065364  1
  Mo  Mo50  1  1.52255927  4.97537765  8.86564424  1
  Mo  Mo51  1  0.34102909  0.37699922  11.56652155  1
  Mo  Mo52  1  1.67169837  6.70834022  11.45471687  1
  Mo  Mo53  1  3.37708709  4.52661989  11.02308727  1
  Mo  Mo54  1  1.69689911  2.31206314  11.32682662  1
  Mo  Mo55  1  -0.35146783  4.66984109  11.01752682  1
  Mo  Mo56  1  11.10639466  0.15975756  9.34765545  1
  Mo  Mo57  1  4.47519570  4.74370565  8.69610029  1
  Mo  Mo58  1  6.28071216  2.69552538  9.19933056  1
  Mo  Mo59  1  7.57517400  4.89262630  9.14441123  1
  Mo  Mo60  1  5.09966354  0.26712481  9.49627823  1
  Mo  Mo61  1  12.96080333  2.35655663  9.37697688  1
  Mo  Mo62  1  9.73775051  4.86870646  11.13916158  1
  Mo  Mo63  1  9.77502536  2.37059676  9.20008520  1
  Mo  Mo64  1  11.04642128  4.54046143  8.99959141  1
  Mo  Mo65  1  3.36984858  0.47850416  11.41182201  1
  Mo  Mo66  1  5.67618248  5.61863186  11.20380176  1
  Mo  Mo67  1  5.52601072  2.30968009  11.52025070  1
  Mo  Mo68  1  7.82147196  3.30377857  11.37170736  1
  Mo  Mo69  1  9.02806883  0.98174138  11.59184144  1
  Mo  Mo70  1  6.23472925  0.07391838  12.07718892  1
  Mo  Mo71  1  11.19685120  2.63403281  12.09228156  1
  Mo  Mo72  1  7.82838280  0.42942926  9.40243577  1
  Mo  Mo73  1  0.00000000  6.80346356  0.00000000  1
  Mo  Mo74  1  3.20718569  6.80346356  0.00000000  1
  Mo  Mo75  1  1.60359284  9.07129137  0.00000000  1
  Mo  Mo76  1  0.00000000  11.33913904  0.00000000  1
  Mo  Mo77  1  3.20718569  11.33913904  0.00000000  1
  Mo  Mo78  1  1.60359284  6.80346356  2.26781788  1
  Mo  Mo79  1  0.00000000  9.07129137  2.26781788  1
  Mo  Mo80  1  3.20718569  9.07129137  2.26781788  1
  Mo  Mo81  1  1.60359284  11.33913904  2.26781788  1
  Mo  Mo82  1  6.41437137  6.80346356  0.00000000  1
  Mo  Mo83  1  4.81077853  9.07129137  0.00000000  1
  Mo  Mo84  1  8.01796421  9.07129137  0.00000000  1
  Mo  Mo85  1  6.41437137  11.33913904  0.00000000  1
  Mo  Mo86  1  4.81077853  6.80346356  2.26781788  1
  Mo  Mo87  1  8.01796421  6.80346356  2.26781788  1
  Mo  Mo88  1  6.41437137  9.07129137  2.26781788  1
  Mo  Mo89  1  4.81077853  11.33913904  2.26781788  1
  Mo  Mo90  1  8.01796421  11.33913904  2.26781788  1
  Mo  Mo91  1  9.62155706  6.80346356  0.00000000  1
  Mo  Mo92  1  11.22514990  9.07129137  0.00000000  1
  Mo  Mo93  1  9.62155706  11.33913904  0.00000000  1
  Mo  Mo94  1  11.22514990  6.80346356  2.26781788  1
  Mo  Mo95  1  9.62155706  9.07129137  2.26781788  1
  Mo  Mo96  1  11.22514990  11.33913904  2.26781788  1
  Mo  Mo97  1  1.75079571  8.80605811  4.56936582  1
  Mo  Mo98  1  3.21418589  11.33099695  4.22119255  1
  Mo  Mo99  1  3.03800912  9.22901937  6.84545486  1
  Mo  Mo100  1  1.73366756  11.27032852  6.86774629  1
  Mo  Mo101  1  9.73130635  11.58677746  4.48194767  1
  Mo  Mo102  1  1.87675967  6.71073320  6.65794868  1
  Mo  Mo103  1  11.11245158  6.95543253  6.92342025  1
  Mo  Mo104  1  7.85564884  13.79745183  4.14021856  1
  Mo  Mo105  1  11.41231847  8.92178488  4.75681242  1
  Mo  Mo106  1  8.13864574  11.16517652  6.87460748  1
  Mo  Mo107  1  4.70097958  11.24441287  6.83053102  1
  Mo  Mo108  1  4.77411930  9.11057195  4.70525914  1
  Mo  Mo109  1  7.94530110  9.07525319  4.45712425  1
  Mo  Mo110  1  6.44169699  11.35174933  4.82064832  1
  Mo  Mo111  1  6.42482699  9.16293943  7.01752087  1
  Mo  Mo112  1  -0.26232594  11.33953621  4.61823816  1
  Mo  Mo113  1  11.17163061  11.50625029  7.02820487  1
  Mo  Mo114  1  -0.00006325  9.03366900  6.62512219  1
  Mo  Mo115  1  9.31039054  9.14733047  6.85942548  1
  Mo  Mo116  1  9.31586162  13.84481491  6.68857085  1
  Mo  Mo117  1  4.95288763  6.95067636  6.73344166  1
  Mo  Mo118  1  4.98476090  13.35460204  4.71193167  1
  Mo  Mo119  1  6.44544036  13.49698917  6.67875071  1
  Mo  Mo120  1  1.62566583  9.00439722  9.36259915  1
  Mo  Mo121  1  3.07784574  11.21720640  9.74279463  1
  Mo  Mo122  1  12.69658286  11.79102455  9.14202818  1
  Mo  Mo123  1  0.99264780  10.96936939  11.67941846  1
  Mo  Mo124  1  11.12396964  12.28451411  11.77950648  1
  Mo  Mo125  1  6.44467580  7.24679989  8.77234790  1
  Mo  Mo126  1  2.86017415  9.19965823  11.45630557  1
  Mo  Mo127  1  12.18194375  8.98146038  11.07332987  1
  Mo  Mo128  1  4.73034072  9.40013216  9.19412757  1
  Mo  Mo129  1  6.53468552  11.30607424  8.91220305  1
  Mo  Mo130  1  8.05844624  9.32537395  9.60864888  1
  Mo  Mo131  1  4.74622771  11.57605374  11.38739576  1
  Mo  Mo132  1  8.21724662  11.38819011  11.70295106  1
  Mo  Mo133  1  9.71954005  9.64809825  11.51379661  1
  Mo  Mo134  1  9.32813432  6.71520142  9.15299021  1
  Mo  Mo135  1  9.32928612  11.79847157  9.38880275  1
  Mo  Mo136  1  10.92796393  8.89298972  8.88670443  1
  Mo  Mo137  1  6.10368146  9.50322878  11.17848187  1
  Mo  Mo138  1  7.79009516  7.13430016  11.05932946  1
  Mo  Mo139  1  1.88032431  13.44337059  9.21997372  1
  Mo  Mo140  1  3.56643020  7.13350581  9.65671695  1
  Mo  Mo141  1  10.88794858  7.20279293  11.43813483  1
  Mo  Mo142  1  4.47438149  7.23858830  12.27796073  1
  Mo  Mo143  1  12.66758911  6.90578569  9.01016618  1
