# generated using pymatgen
data_Mo
_symmetry_space_group_name_H-M   'P 1'
_cell_length_a   12.82874274
_cell_length_b   13.60693648
_cell_length_c   29.78810234
_cell_angle_alpha   90.00000000
_cell_angle_beta   90.00000000
_cell_angle_gamma   90.00000000
_symmetry_Int_Tables_number   1
_chemical_formula_structural   Mo
_chemical_formula_sum   Mo144
_cell_volume   5199.80779529
_cell_formula_units_Z   144
loop_
 _symmetry_equiv_pos_site_id
 _symmetry_equiv_pos_as_xyz
  1  'x, y, z'
loop_
 _atom_site_type_symbol
 _atom_site_label
 _atom_site_symmetry_multiplicity
 _atom_site_fract_x
 _atom_site_fract_y
 _atom_site_fract_z
 _atom_site_occupancy
  Mo  Mo0  1  0.00000000  2.26781788  0.00000000  1
  Mo  Mo1  1  3.20718569  2.26781788  0.00000000  1
  Mo  Mo2  1  1.60359284  4.53564569  0.00000000  1
  Mo  Mo3  1  1.60359284  0.00000000  0.00000000  1
  Mo  Mo4  1  0.00000000  0.00000000  2.26781788  1
  Mo  Mo5  1  3.20718569  0.00000000  2.26781788  1
  Mo  Mo6  1  1.60359284  2.26781788  2.26781788  1
  Mo  Mo7  1  0.00000000  4.53564569  2.26781788  1
  Mo  Mo8  1  3.20718569  4.53564569  2.26781788  1
  Mo  Mo9  1  6.41437137  2.26781788  0.00000000  1
  Mo  Mo10  1  4.81077853  4.53564569  0.00000000  1
  Mo  Mo11  1  8.01796421  4.53564569  0.00000000  1
  Mo  Mo12  1  4.81077853  0.00000000  0.00000000  1
  Mo  Mo13  1  8.01796421  0.00000000  0.00000000  1
  Mo  Mo14  1  6.41437137  0.00000000  2.26781788  1
  Mo  Mo15  1  4.81077853  2.26781788  2.26781788  1
  Mo  Mo16  1  8.01796421  2.26781788  2.26781788  1
  Mo  Mo17  1  6.41437137  4.53564569  2.26781788  1
  Mo  Mo18  1  9.62155706  2.26781788  0.00000000  1
  Mo  Mo19  1  11.22514990  4.53564569  0.00000000  1
  Mo  Mo20  1  11.22514990  0.00000000  0.00000000  1
  Mo  Mo21  1  9.62155706  0.00000000  2.26781788  1
  Mo  Mo22  1  11.22514990  2.26781788  2.26781788  1
  Mo  Mo23  1  9.62155706  4.53564569  2.26781788  1
  Mo  Mo24  1  3.30810778  2.25246708  4.62913068  1
  Mo  Mo25  1  1.89194167  4.55238660  4.57489647  1
  Mo  Mo26  1  3.49622957  4.65874005  6.88614541  1
  Mo  Mo27  1  1.79825809  2.43272481  6.80631329  1
  Mo  Mo28  1  0.36314775  2.42190180  4.55230716  1
  Mo  Mo29  1  0.12503755  4.28631927  6.68323878  1
  Mo  Mo30  1  6.38244845  0.05009882  6.67951527  1
  Mo  Mo31  1  9.78910520  6.61659287  4.93131112  1
  Mo  Mo32  1  11.39236045  4.19809684  4.61606363  1
  Mo  Mo33  1  6.28747405  4.71816732  7.17204168  1
  Mo  Mo34  1  8.26197842  2.22955010  6.77540317  1
  Mo  Mo35  1  6.39666731  2.44734084  4.68059459  1
  Mo  Mo36  1  4.94766479  4.59888583  4.66604807  1
  Mo  Mo37  1  7.96742373  4.51965940  4.69015657  1
  Mo  Mo38  1  4.67704981  1.97610299  6.76749939  1
  Mo  Mo39  1  11.51707330  1.91200892  6.89036539  1
  Mo  Mo40  1  9.57914873  2.01495661  4.41108177  1
  Mo  Mo41  1  9.91071016  4.37909928  6.80075285  1
  Mo  Mo42  1  12.73818691  6.59529437  4.46700397  1
  Mo  Mo43  1  1.39986208  6.67108524  7.45187112  1
  Mo  Mo44  1  11.36098364  6.58126418  6.99043355  1
  Mo  Mo45  1  3.01871636  2.38155878  9.04114581  1
  Mo  Mo46  1  1.61116895  4.79990587  8.97433110  1
  Mo  Mo47  1  12.60443833  2.03632461  9.22333977  1
  Mo  Mo48  1  -0.00236298  0.16401131  10.92438936  1
  Mo  Mo49  1  9.77097418  4.39518485  11.63721865  1
  Mo  Mo50  1  4.75032854  4.35193253  9.27745483  1
  Mo  Mo51  1  5.33032275  1.59344503  10.11018123  1
  Mo  Mo52  1  8.32251777  4.43039439  9.46988597  1
  Mo  Mo53  1  6.49803622  4.28976476  11.50555523  1
  Mo  Mo54  1  4.64750001  1.84481690  12.49978280  1
  Mo  Mo55  1  8.54292987  2.23637157  11.40089970  1
  Mo  Mo56  1  6.61045652  0.31108212  11.58866404  1
  Mo  Mo57  1  11.56205334  2.09932644  12.01800989  1
  Mo  Mo58  1  9.94535373  2.04710790  9.41474819  1
  Mo  Mo59  1  11.36783491  4.15868718  9.11163439  1
  Mo  Mo60  1  8.03817048  6.61495452  11.48639156  1
  Mo  Mo61  1  2.92368239  4.04098446  11.39851665  1
  Mo  Mo62  1  10.15565773  6.58501748  9.73479156  1
  Mo  Mo63  1  1.43594540  2.33597306  10.98843378  1
  Mo  Mo64  1  1.56053911  6.75567352  11.52283233  1
  Mo  Mo65  1  4.85078395  6.65905084  11.33328071  1
  Mo  Mo66  1  0.09709889  4.53874365  11.11622474  1
  Mo  Mo67  1  9.91856429  0.03877607  10.99717162  1
  Mo  Mo68  1  3.21764131  6.68424165  9.20237888  1
  Mo  Mo69  1  6.42872924  6.65409609  9.49587112  1
  Mo  Mo70  1  8.08924714  6.68719067  7.54733205  1
  Mo  Mo71  1  0.00000000  6.80346356  0.00000000  1
  Mo  Mo72  1  3.20718569  6.80346356  0.00000000  1
  Mo  Mo73  1  1.60359284  9.07129137  0.00000000  1
  Mo  Mo74  1  0.00000000  11.33913904  0.00000000  1
  Mo  Mo75  1  3.20718569  11.33913904  0.00000000  1
  Mo  Mo76  1  1.60359284  6.80346356  2.26781788  1
  Mo  Mo77  1  0.00000000  9.07129137  2.26781788  1
  Mo  Mo78  1  3.20718569  9.07129137  2.26781788  1
  Mo  Mo79  1  1.60359284  11.33913904  2.26781788  1
  Mo  Mo80  1  6.41437137  6.80346356  0.00000000  1
  Mo  Mo81  1  4.81077853  9.07129137  0.00000000  1
  Mo  Mo82  1  8.01796421  9.07129137  0.00000000  1
  Mo  Mo83  1  6.41437137  11.33913904  0.00000000  1
  Mo  Mo84  1  4.81077853  6.80346356  2.26781788  1
  Mo  Mo85  1  8.01796421  6.80346356  2.26781788  1
  Mo  Mo86  1  6.41437137  9.07129137  2.26781788  1
  Mo  Mo87  1  4.81077853  11.33913904  2.26781788  1
  Mo  Mo88  1  8.01796421  11.33913904  2.26781788  1
  Mo  Mo89  1  9.62155706  6.80346356  0.00000000  1
  Mo  Mo90  1  11.22514990  9.07129137  0.00000000  1
  Mo  Mo91  1  9.62155706  11.33913904  0.00000000  1
  Mo  Mo92  1  11.22514990  6.80346356  2.26781788  1
  Mo  Mo93  1  9.62155706  9.07129137  2.26781788  1
  Mo  Mo94  1  11.22514990  11.33913904  2.26781788  1
  Mo  Mo95  1  1.70920159  8.99302810  4.46262512  1
  Mo  Mo96  1  3.55475326  11.40040323  4.54023305  1
  Mo  Mo97  1  3.66660759  9.03319239  6.66238711  1
  Mo  Mo98  1  1.89415592  11.05793935  7.08105889  1
  Mo  Mo99  1  0.17144046  8.92067280  6.99628195  1
  Mo  Mo100  1  6.60245345  9.04072878  6.70680117  1
  Mo  Mo101  1  0.35520823  11.13657994  4.57677313  1
  Mo  Mo102  1  3.00706921  13.37326925  6.46790059  1
  Mo  Mo103  1  0.17407671  13.34576490  6.70390180  1
  Mo  Mo104  1  8.46798300  11.16160195  6.65563514  1
  Mo  Mo105  1  5.03818090  11.18702113  6.91447389  1
  Mo  Mo106  1  5.10839146  8.64347464  4.45449296  1
  Mo  Mo107  1  8.51509785  9.05474904  4.55327031  1
  Mo  Mo108  1  6.65525782  11.11672121  4.57149070  1
  Mo  Mo109  1  4.98400627  6.88454678  6.94986216  1
  Mo  Mo110  1  11.55986887  9.07181763  4.47145232  1
  Mo  Mo111  1  9.58165093  13.56172865  6.50534423  1
  Mo  Mo112  1  10.04732833  11.39653078  4.59558928  1
  Mo  Mo113  1  11.62738857  11.25285283  6.74793854  1
  Mo  Mo114  1  9.82877302  9.07786461  6.81965836  1
  Mo  Mo115  1  11.41807751  13.58665136  4.63055058  1
  Mo  Mo116  1  3.10078258  6.83426446  4.57806394  1
  Mo  Mo117  1  1.44812874  13.32441676  4.54693538  1
  Mo  Mo118  1  6.79920386  6.90056285  4.78542885  1
  Mo  Mo119  1  5.14529892  13.20456930  4.58515351  1
  Mo  Mo120  1  8.19518356  13.53829534  4.51338404  1
  Mo  Mo121  1  1.74986235  8.91065406  9.35105130  1
  Mo  Mo122  1  3.31803714  11.27866919  9.54046391  1
  Mo  Mo123  1  0.40280266  10.90810520  9.39207944  1
  Mo  Mo124  1  11.03450604  11.16746027  10.87027431  1
  Mo  Mo125  1  4.90730191  8.83230143  9.31682477  1
  Mo  Mo126  1  6.54496241  11.29415900  8.96779757  1
  Mo  Mo127  1  8.12889511  8.81159869  9.25555064  1
  Mo  Mo128  1  6.08699020  9.01565712  11.73154764  1
  Mo  Mo129  1  9.52520247  9.31353815  11.65757385  1
  Mo  Mo130  1  4.50319651  13.34536773  9.03438391  1
  Mo  Mo131  1  5.05111887  11.51071851  11.15703444  1
  Mo  Mo132  1  9.42511445  11.26645607  8.95061977  1
  Mo  Mo133  1  11.10023846  9.08725779  9.30265556  1
  Mo  Mo134  1  11.40099900  7.23159803  12.23337787  1
  Mo  Mo135  1  3.46746419  8.44487737  12.08344442  1
  Mo  Mo136  1  0.16227863  9.13122503  11.59948705  1
  Mo  Mo137  1  2.31044465  11.02447738  11.96280261  1
  Mo  Mo138  1  8.05063183  11.43068780  11.30319473  1
  Mo  Mo139  1  11.42919840  13.18034164  8.83915269  1
  Mo  Mo140  1  12.66590111  6.98516106  9.26325583  1
  Mo  Mo141  1  8.28201588  13.57433894  9.26150826  1
  Mo  Mo142  1  3.08116215  13.57374318  11.13270749  1
  Mo  Mo143  1  1.74992193  13.33921152  8.66085104  1
