# generated using pymatgen
data_Mo
_symmetry_space_group_name_H-M   'P 1'
_cell_length_a   12.82874274
_cell_length_b   13.60693648
_cell_length_c   29.78810234
_cell_angle_alpha   90.00000000
_cell_angle_beta   90.00000000
_cell_angle_gamma   90.00000000
_symmetry_Int_Tables_number   1
_chemical_formula_structural   Mo
_chemical_formula_sum   Mo144
_cell_volume   5199.80779529
_cell_formula_units_Z   144
loop_
 _symmetry_equiv_pos_site_id
 _symmetry_equiv_pos_as_xyz
  1  'x, y, z'
loop_
 _atom_site_type_symbol
 _atom_site_label
 _atom_site_symmetry_multiplicity
 _atom_site_fract_x
 _atom_site_fract_y
 _atom_site_fract_z
 _atom_site_occupancy
  Mo  Mo0  1  0.00000000  2.26781788  0.00000000  1
  Mo  Mo1  1  3.20718569  2.26781788  0.00000000  1
  Mo  Mo2  1  1.60359284  4.53564569  0.00000000  1
  Mo  Mo3  1  1.60359284  0.00000000  0.00000000  1
  Mo  Mo4  1  0.00000000  0.00000000  2.26781788  1
  Mo  Mo5  1  3.20718569  0.00000000  2.26781788  1
  Mo  Mo6  1  1.60359284  2.26781788  2.26781788  1
  Mo  Mo7  1  0.00000000  4.53564569  2.26781788  1
  Mo  Mo8  1  3.20718569  4.53564569  2.26781788  1
  Mo  Mo9  1  6.41437137  2.26781788  0.00000000  1
  Mo  Mo10  1  4.81077853  4.53564569  0.00000000  1
  Mo  Mo11  1  8.01796421  4.53564569  0.00000000  1
  Mo  Mo12  1  4.81077853  0.00000000  0.00000000  1
  Mo  Mo13  1  8.01796421  0.00000000  0.00000000  1
  Mo  Mo14  1  6.41437137  0.00000000  2.26781788  1
  Mo  Mo15  1  4.81077853  2.26781788  2.26781788  1
  Mo  Mo16  1  8.01796421  2.26781788  2.26781788  1
  Mo  Mo17  1  6.41437137  4.53564569  2.26781788  1
  Mo  Mo18  1  9.62155706  2.26781788  0.00000000  1
  Mo  Mo19  1  11.22514990  4.53564569  0.00000000  1
  Mo  Mo20  1  11.22514990  0.00000000  0.00000000  1
  Mo  Mo21  1  9.62155706  0.00000000  2.26781788  1
  Mo  Mo22  1  11.22514990  2.26781788  2.26781788  1
  Mo  Mo23  1  9.62155706  4.53564569  2.26781788  1
  Mo  Mo24  1  3.08092385  2.24136604  4.45211985  1
  Mo  Mo25  1  1.61939047  4.55963504  4.65963370  1
  Mo  Mo26  1  3.26036738  4.22424086  6.89369173  1
  Mo  Mo27  1  1.42223295  2.58606403  6.61213458  1
  Mo  Mo28  1  0.18471602  2.15760190  4.52613335  1
  Mo  Mo29  1  12.62360201  4.81814612  7.06048524  1
  Mo  Mo30  1  10.90244546  4.51080241  4.49269124  1
  Mo  Mo31  1  9.76071714  4.40248294  6.71982850  1
  Mo  Mo32  1  9.29163396  2.18161111  4.53189238  1
  Mo  Mo33  1  6.48532663  4.62672777  6.77227542  1
  Mo  Mo34  1  7.86310580  2.34846420  6.71475459  1
  Mo  Mo35  1  6.09296768  2.29318741  4.49047699  1
  Mo  Mo36  1  4.60343348  4.54180189  4.57431064  1
  Mo  Mo37  1  7.70072092  4.51740544  4.46978419  1
  Mo  Mo38  1  4.97419606  2.37843103  6.58265429  1
  Mo  Mo39  1  11.07750020  2.47225362  6.42224536  1
  Mo  Mo40  1  9.30033209  0.16399045  6.74046173  1
  Mo  Mo41  1  4.64752980  6.58059891  7.38234569  1
  Mo  Mo42  1  1.72323179  6.70073433  7.09784945  1
  Mo  Mo43  1  12.82626040  0.16903854  7.14027764  1
  Mo  Mo44  1  7.83447943  -0.13444364  4.33355327  1
  Mo  Mo45  1  9.41660498  6.70696004  4.48147106  1
  Mo  Mo46  1  3.44957147  6.62571796  4.59480486  1
  Mo  Mo47  1  1.29409446  0.20501264  4.51604511  1
  Mo  Mo48  1  7.90237645  6.66493896  6.76490783  1
  Mo  Mo49  1  0.08460347  6.71089207  4.79064177  1
  Mo  Mo50  1  3.33926613  2.14853639  8.88813426  1
  Mo  Mo51  1  1.85133056  4.19137466  9.19816883  1
  Mo  Mo52  1  12.63978688  2.05431662  9.10182418  1
  Mo  Mo53  1  1.32146973  4.63626989  12.86716939  1
  Mo  Mo54  1  3.75924859  4.35797951  11.55003880  1
  Mo  Mo55  1  12.41309942  3.08145011  11.41867327  1
  Mo  Mo56  1  5.01252342  4.25066291  9.04539558  1
  Mo  Mo57  1  6.25260212  1.93740825  8.84684795  1
  Mo  Mo58  1  4.87709677  1.79790063  11.31054246  1
  Mo  Mo59  1  7.90541483  1.86800197  10.85349367  1
  Mo  Mo60  1  8.98882797  6.08770511  11.27281086  1
  Mo  Mo61  1  10.55680418  0.69309765  11.59412519  1
  Mo  Mo62  1  8.21015705  4.15195507  9.11114785  1
  Mo  Mo63  1  9.96322659  2.13660129  9.19239987  1
  Mo  Mo64  1  11.33655740  4.56101522  9.68553197  1
  Mo  Mo65  1  2.17574285  2.05842738  10.87881356  1
  Mo  Mo66  1  6.59450003  4.51260955  11.72827095  1
  Mo  Mo67  1  9.82710489  3.44370322  11.69004288  1
  Mo  Mo68  1  6.49147291  6.36353301  9.33323801  1
  Mo  Mo69  1  11.87939592  5.83247072  11.91504235  1
  Mo  Mo70  1  3.00376273  6.49946605  9.52729757  1
  Mo  Mo71  1  9.52541099  6.68440052  9.11012513  1
  Mo  Mo72  1  1.48667454  0.06439274  9.36308569  1
  Mo  Mo73  1  5.20157857  6.33633647  11.34827405  1
  Mo  Mo74  1  0.00000000  6.80346356  0.00000000  1
  Mo  Mo75  1  3.20718569  6.80346356  0.00000000  1
  Mo  Mo76  1  1.60359284  9.07129137  0.00000000  1
  Mo  Mo77  1  0.00000000  11.33913904  0.00000000  1
  Mo  Mo78  1  3.20718569  11.33913904  0.00000000  1
  Mo  Mo79  1  1.60359284  6.80346356  2.26781788  1
  Mo  Mo80  1  0.00000000  9.07129137  2.26781788  1
  Mo  Mo81  1  3.20718569  9.07129137  2.26781788  1
  Mo  Mo82  1  1.60359284  11.33913904  2.26781788  1
  Mo  Mo83  1  6.41437137  6.80346356  0.00000000  1
  Mo  Mo84  1  4.81077853  9.07129137  0.00000000  1
  Mo  Mo85  1  8.01796421  9.07129137  0.00000000  1
  Mo  Mo86  1  6.41437137  11.33913904  0.00000000  1
  Mo  Mo87  1  4.81077853  6.80346356  2.26781788  1
  Mo  Mo88  1  8.01796421  6.80346356  2.26781788  1
  Mo  Mo89  1  6.41437137  9.07129137  2.26781788  1
  Mo  Mo90  1  4.81077853  11.33913904  2.26781788  1
  Mo  Mo91  1  8.01796421  11.33913904  2.26781788  1
  Mo  Mo92  1  9.62155706  6.80346356  0.00000000  1
  Mo  Mo93  1  11.22514990  9.07129137  0.00000000  1
  Mo  Mo94  1  9.62155706  11.33913904  0.00000000  1
  Mo  Mo95  1  11.22514990  6.80346356  2.26781788  1
  Mo  Mo96  1  9.62155706  9.07129137  2.26781788  1
  Mo  Mo97  1  11.22514990  11.33913904  2.26781788  1
  Mo  Mo98  1  1.68171711  8.99746652  4.21823360  1
  Mo  Mo99  1  3.19500235  11.45908580  4.50534126  1
  Mo  Mo100  1  3.25075575  8.93976697  7.00672764  1
  Mo  Mo101  1  1.46869246  11.50128561  6.63233092  1
  Mo  Mo102  1  0.10531683  9.09687935  6.60814298  1
  Mo  Mo103  1  11.45362464  8.78538516  4.34286702  1
  Mo  Mo104  1  9.77823254  11.26357655  4.58245272  1
  Mo  Mo105  1  11.02179645  11.49185271  6.80459551  1
  Mo  Mo106  1  9.85425178  9.04370759  6.66215873  1
  Mo  Mo107  1  6.77080587  9.06502594  6.75685511  1
  Mo  Mo108  1  8.03402000  11.67107779  6.94655568  1
  Mo  Mo109  1  4.45008433  11.26496666  6.60602802  1
  Mo  Mo110  1  5.08222757  9.22628880  4.40527309  1
  Mo  Mo111  1  8.00345741  9.17040632  4.41159810  1
  Mo  Mo112  1  6.41943535  11.70066730  4.49068551  1
  Mo  Mo113  1  6.40984358  13.74194666  6.99702665  1
  Mo  Mo114  1  11.16934685  6.77054771  7.05083389  1
  Mo  Mo115  1  12.60721855  11.26665465  4.54851415  1
  Mo  Mo116  1  6.48805721  6.99792030  4.53341158  1
  Mo  Mo117  1  11.19387239  13.56599827  4.61290609  1
  Mo  Mo118  1  2.98828285  13.35350981  6.84535556  1
  Mo  Mo119  1  4.65699248  13.47117281  4.63769972  1
  Mo  Mo120  1  1.93355565  8.63316796  9.11356069  1
  Mo  Mo121  1  3.07016041  11.04493188  9.78803283  1
  Mo  Mo122  1  0.43016800  11.24401570  8.94725371  1
  Mo  Mo123  1  3.50468939  8.44575115  11.23547644  1
  Mo  Mo124  1  1.16738580  11.94959655  11.75637106  1
  Mo  Mo125  1  5.00102521  8.80460842  8.70243523  1
  Mo  Mo126  1  6.30769025  11.17907763  8.97566163  1
  Mo  Mo127  1  7.92267207  8.94673739  8.86069942  1
  Mo  Mo128  1  6.45814002  13.22403086  11.45680204  1
  Mo  Mo129  1  5.17810555  10.57209540  11.40526862  1
  Mo  Mo130  1  9.43350477  11.05496054  8.97093525  1
  Mo  Mo131  1  11.60216798  8.96690393  8.77777927  1
  Mo  Mo132  1  7.32850865  7.94044564  11.44121293  1
  Mo  Mo133  1  10.36923842  8.80817306  10.85210356  1
  Mo  Mo134  1  0.43985708  9.37254838  11.35929565  1
  Mo  Mo135  1  3.21141560  10.61777049  12.63621231  1
  Mo  Mo136  1  11.65320493  11.57158553  11.11225299  1
  Mo  Mo137  1  8.07942700  10.98615002  11.33328071  1
  Mo  Mo138  1  10.76144844  13.22522238  9.22483911  1
  Mo  Mo139  1  4.77357319  13.58595630  9.18792172  1
  Mo  Mo140  1  3.27320605  13.37267349  11.22127744  1
  Mo  Mo141  1  8.34322050  13.27486922  9.34989949  1
  Mo  Mo142  1  1.51041566  6.91854493  11.75954845  1
  Mo  Mo143  1  12.59818283  6.86933499  9.46968738  1
