# generated using pymatgen
data_Mo
_symmetry_space_group_name_H-M   'P 1'
_cell_length_a   12.82874274
_cell_length_b   13.60693648
_cell_length_c   29.78810234
_cell_angle_alpha   90.00000000
_cell_angle_beta   90.00000000
_cell_angle_gamma   90.00000000
_symmetry_Int_Tables_number   1
_chemical_formula_structural   Mo
_chemical_formula_sum   Mo144
_cell_volume   5199.80779529
_cell_formula_units_Z   144
loop_
 _symmetry_equiv_pos_site_id
 _symmetry_equiv_pos_as_xyz
  1  'x, y, z'
loop_
 _atom_site_type_symbol
 _atom_site_label
 _atom_site_symmetry_multiplicity
 _atom_site_fract_x
 _atom_site_fract_y
 _atom_site_fract_z
 _atom_site_occupancy
  Mo  Mo0  1  0.00000000  2.26781788  0.00000000  1
  Mo  Mo1  1  3.20718569  2.26781788  0.00000000  1
  Mo  Mo2  1  1.60359284  4.53564569  0.00000000  1
  Mo  Mo3  1  1.60359284  0.00000000  0.00000000  1
  Mo  Mo4  1  0.00000000  0.00000000  2.26781788  1
  Mo  Mo5  1  3.20718569  0.00000000  2.26781788  1
  Mo  Mo6  1  1.60359284  2.26781788  2.26781788  1
  Mo  Mo7  1  0.00000000  4.53564569  2.26781788  1
  Mo  Mo8  1  3.20718569  4.53564569  2.26781788  1
  Mo  Mo9  1  6.41437137  2.26781788  0.00000000  1
  Mo  Mo10  1  4.81077853  4.53564569  0.00000000  1
  Mo  Mo11  1  8.01796421  4.53564569  0.00000000  1
  Mo  Mo12  1  4.81077853  0.00000000  0.00000000  1
  Mo  Mo13  1  8.01796421  0.00000000  0.00000000  1
  Mo  Mo14  1  6.41437137  0.00000000  2.26781788  1
  Mo  Mo15  1  4.81077853  2.26781788  2.26781788  1
  Mo  Mo16  1  8.01796421  2.26781788  2.26781788  1
  Mo  Mo17  1  6.41437137  4.53564569  2.26781788  1
  Mo  Mo18  1  9.62155706  2.26781788  0.00000000  1
  Mo  Mo19  1  11.22514990  4.53564569  0.00000000  1
  Mo  Mo20  1  11.22514990  0.00000000  0.00000000  1
  Mo  Mo21  1  9.62155706  0.00000000  2.26781788  1
  Mo  Mo22  1  11.22514990  2.26781788  2.26781788  1
  Mo  Mo23  1  9.62155706  4.53564569  2.26781788  1
  Mo  Mo24  1  3.54708779  2.35836378  5.40611361  1
  Mo  Mo25  1  1.83774719  4.85987925  4.76938299  1
  Mo  Mo26  1  3.41641732  4.80908061  6.95958301  1
  Mo  Mo27  1  1.78343355  2.04150774  7.03403340  1
  Mo  Mo28  1  9.46096940  2.39421873  4.65464915  1
  Mo  Mo29  1  11.35740907  4.26010574  4.39083579  1
  Mo  Mo30  1  1.57067699  6.77846142  7.04263224  1
  Mo  Mo31  1  8.17980297  -0.00379548  4.64605032  1
  Mo  Mo32  1  8.29808160  2.30650269  6.78829149  1
  Mo  Mo33  1  6.56033307  4.62286525  6.96881732  1
  Mo  Mo34  1  6.82578478  2.37418126  4.43691798  1
  Mo  Mo35  1  4.69010693  4.84149006  4.61188337  1
  Mo  Mo36  1  7.99917785  4.79710579  4.46053002  1
  Mo  Mo37  1  9.87969082  4.53435487  6.94379531  1
  Mo  Mo38  1  1.55400558  0.02972704  4.53132641  1
  Mo  Mo39  1  0.11762130  4.21346750  6.85368630  1
  Mo  Mo40  1  12.92525619  2.24745275  4.64366727  1
  Mo  Mo41  1  11.45441899  2.24680734  6.84221788  1
  Mo  Mo42  1  11.35234509  0.22702804  4.43441578  1
  Mo  Mo43  1  9.77957301  0.29116778  6.76164107  1
  Mo  Mo44  1  4.67030777  0.03973177  4.46657701  1
  Mo  Mo45  1  2.78234777  1.01645942  9.52341519  1
  Mo  Mo46  1  1.85442852  4.32363383  9.09234163  1
  Mo  Mo47  1  1.87230138  2.17932736  11.63622571  1
  Mo  Mo48  1  4.28838458  2.70447174  8.09906729  1
  Mo  Mo49  1  10.15476409  4.56799556  11.19079429  1
  Mo  Mo50  1  5.18623770  4.79390853  9.52210451  1
  Mo  Mo51  1  7.02803607  2.68049232  9.30093778  1
  Mo  Mo52  1  8.26718141  4.95178547  9.18396983  1
  Mo  Mo53  1  12.87878675  2.26085739  9.42273140  1
  Mo  Mo54  1  9.60034793  2.54388408  9.14680421  1
  Mo  Mo55  1  11.39891383  5.02873807  9.10448525  1
  Mo  Mo56  1  4.90719269  6.29801904  12.00837840  1
  Mo  Mo57  1  2.90750745  4.85302799  11.16289276  1
  Mo  Mo58  1  -0.06279044  3.77094538  11.25384577  1
  Mo  Mo59  1  11.80125180  0.95004088  11.36018930  1
  Mo  Mo60  1  8.93235966  1.60887527  10.98267474  1
  Mo  Mo61  1  4.55596117  2.66341381  11.39484279  1
  Mo  Mo62  1  6.65854445  3.71821051  12.00996710  1
  Mo  Mo63  1  6.17960141  0.90010113  11.15723302  1
  Mo  Mo64  1  0.55088230  6.24520474  12.27647132  1
  Mo  Mo65  1  8.10204610  0.31712712  8.57372084  1
  Mo  Mo66  1  5.15052176  0.13679193  8.74579678  1
  Mo  Mo67  1  7.97132597  6.52174755  11.24322135  1
  Mo  Mo68  1  3.62513262  6.71614471  9.11771116  1
  Mo  Mo69  1  0.00000000  6.80346356  0.00000000  1
  Mo  Mo70  1  3.20718569  6.80346356  0.00000000  1
  Mo  Mo71  1  1.60359284  9.07129137  0.00000000  1
  Mo  Mo72  1  0.00000000  11.33913904  0.00000000  1
  Mo  Mo73  1  3.20718569  11.33913904  0.00000000  1
  Mo  Mo74  1  1.60359284  6.80346356  2.26781788  1
  Mo  Mo75  1  0.00000000  9.07129137  2.26781788  1
  Mo  Mo76  1  3.20718569  9.07129137  2.26781788  1
  Mo  Mo77  1  1.60359284  11.33913904  2.26781788  1
  Mo  Mo78  1  6.41437137  6.80346356  0.00000000  1
  Mo  Mo79  1  4.81077853  9.07129137  0.00000000  1
  Mo  Mo80  1  8.01796421  9.07129137  0.00000000  1
  Mo  Mo81  1  6.41437137  11.33913904  0.00000000  1
  Mo  Mo82  1  4.81077853  6.80346356  2.26781788  1
  Mo  Mo83  1  8.01796421  6.80346356  2.26781788  1
  Mo  Mo84  1  6.41437137  9.07129137  2.26781788  1
  Mo  Mo85  1  4.81077853  11.33913904  2.26781788  1
  Mo  Mo86  1  8.01796421  11.33913904  2.26781788  1
  Mo  Mo87  1  9.62155706  6.80346356  0.00000000  1
  Mo  Mo88  1  11.22514990  9.07129137  0.00000000  1
  Mo  Mo89  1  9.62155706  11.33913904  0.00000000  1
  Mo  Mo90  1  11.22514990  6.80346356  2.26781788  1
  Mo  Mo91  1  9.62155706  9.07129137  2.26781788  1
  Mo  Mo92  1  11.22514990  11.33913904  2.26781788  1
  Mo  Mo93  1  1.39030010  9.06814376  4.72992369  1
  Mo  Mo94  1  2.99140067  11.18870912  4.28953638  1
  Mo  Mo95  1  1.63585336  11.22445484  6.69451854  1
  Mo  Mo96  1  3.14766906  8.93483207  6.83544606  1
  Mo  Mo97  1  -0.00930858  6.68489699  4.73443162  1
  Mo  Mo98  1  0.17126272  9.25116186  6.96114192  1
  Mo  Mo99  1  4.72044114  11.09596883  6.43805291  1
  Mo  Mo100  1  6.46422672  9.26545022  6.71774333  1
  Mo  Mo101  1  7.91761803  11.62262248  6.76843275  1
  Mo  Mo102  1  4.59365305  9.05271352  4.50351425  1
  Mo  Mo103  1  8.11933313  9.06174925  4.48679320  1
  Mo  Mo104  1  6.60330737  11.51488884  4.64722199  1
  Mo  Mo105  1  11.44022000  11.51895988  6.87504437  1
  Mo  Mo106  1  10.03739896  11.30567707  4.37693468  1
  Mo  Mo107  1  -0.07804264  11.49840609  4.39304011  1
  Mo  Mo108  1  9.58413327  8.96832383  6.87951259  1
  Mo  Mo109  1  11.18394302  8.94152447  4.26041355  1
  Mo  Mo110  1  8.06970615  6.86760728  6.97658208  1
  Mo  Mo111  1  6.69923499  6.93608019  4.61997580  1
  Mo  Mo112  1  3.25788504  13.37525512  6.90478283  1
  Mo  Mo113  1  3.11878453  6.97890556  4.38834352  1
  Mo  Mo114  1  5.02856927  7.00518859  6.67936633  1
  Mo  Mo115  1  11.59660753  7.15259998  6.98641216  1
  Mo  Mo116  1  9.84482881  6.93922780  4.72879174  1
  Mo  Mo117  1  0.19610104  13.50592560  6.87208542  1
  Mo  Mo118  1  5.90538207  13.57404106  6.62474488  1
  Mo  Mo119  1  2.25369832  9.02724470  9.14287218  1
  Mo  Mo120  1  3.27083293  11.60127434  9.09716730  1
  Mo  Mo121  1  1.30897858  12.90490099  10.96797928  1
  Mo  Mo122  1  11.05803864  6.81385961  10.92518371  1
  Mo  Mo123  1  0.54724219  9.05129362  11.29525123  1
  Mo  Mo124  1  5.41001585  8.66731506  11.03678980  1
  Mo  Mo125  1  4.85142936  9.22009287  8.78745047  1
  Mo  Mo126  1  7.94238187  9.22822502  8.88479799  1
  Mo  Mo127  1  6.46882402  11.36316811  8.69662655  1
  Mo  Mo128  1  9.53184522  7.36233801  9.06420180  1
  Mo  Mo129  1  9.25702019  12.71971829  11.40695662  1
  Mo  Mo130  1  0.25327135  11.65449575  9.01148679  1
  Mo  Mo131  1  9.46816819  9.71465480  11.75071132  1
  Mo  Mo132  1  9.93711235  11.53981155  8.81678182  1
  Mo  Mo133  1  11.26685324  9.39191065  9.07276092  1
  Mo  Mo134  1  11.02080352  13.67353332  9.31071821  1
  Mo  Mo135  1  2.62073739  10.58262053  11.47219256  1
  Mo  Mo136  1  2.38956185  7.58709917  11.65310563  1
  Mo  Mo137  1  7.38613870  10.73722078  11.47666078  1
  Mo  Mo138  1  5.22421753  11.88733941  11.02189575  1
  Mo  Mo139  1  6.76098573  12.78842951  12.76211668  1
  Mo  Mo140  1  11.47656148  11.42810617  11.32623086  1
  Mo  Mo141  1  1.05057672  6.80331462  9.74539613  1
  Mo  Mo142  1  6.31418405  6.98640223  9.17517241  1
  Mo  Mo143  1  3.51449961  13.35301334  12.40823403  1
