# generated using pymatgen
data_Mo
_symmetry_space_group_name_H-M   'P 1'
_cell_length_a   12.82874274
_cell_length_b   13.60693648
_cell_length_c   29.78810234
_cell_angle_alpha   90.00000000
_cell_angle_beta   90.00000000
_cell_angle_gamma   90.00000000
_symmetry_Int_Tables_number   1
_chemical_formula_structural   Mo
_chemical_formula_sum   Mo144
_cell_volume   5199.80779529
_cell_formula_units_Z   144
loop_
 _symmetry_equiv_pos_site_id
 _symmetry_equiv_pos_as_xyz
  1  'x, y, z'
loop_
 _atom_site_type_symbol
 _atom_site_label
 _atom_site_symmetry_multiplicity
 _atom_site_fract_x
 _atom_site_fract_y
 _atom_site_fract_z
 _atom_site_occupancy
  Mo  Mo0  1  0.00000000  2.26781788  0.00000000  1
  Mo  Mo1  1  3.20718569  2.26781788  0.00000000  1
  Mo  Mo2  1  1.60359284  4.53564569  0.00000000  1
  Mo  Mo3  1  1.60359284  0.00000000  0.00000000  1
  Mo  Mo4  1  0.00000000  0.00000000  2.26781788  1
  Mo  Mo5  1  3.20718569  0.00000000  2.26781788  1
  Mo  Mo6  1  1.60359284  2.26781788  2.26781788  1
  Mo  Mo7  1  0.00000000  4.53564569  2.26781788  1
  Mo  Mo8  1  3.20718569  4.53564569  2.26781788  1
  Mo  Mo9  1  6.41437137  2.26781788  0.00000000  1
  Mo  Mo10  1  4.81077853  4.53564569  0.00000000  1
  Mo  Mo11  1  8.01796421  4.53564569  0.00000000  1
  Mo  Mo12  1  4.81077853  0.00000000  0.00000000  1
  Mo  Mo13  1  8.01796421  0.00000000  0.00000000  1
  Mo  Mo14  1  6.41437137  0.00000000  2.26781788  1
  Mo  Mo15  1  4.81077853  2.26781788  2.26781788  1
  Mo  Mo16  1  8.01796421  2.26781788  2.26781788  1
  Mo  Mo17  1  6.41437137  4.53564569  2.26781788  1
  Mo  Mo18  1  9.62155706  2.26781788  0.00000000  1
  Mo  Mo19  1  11.22514990  4.53564569  0.00000000  1
  Mo  Mo20  1  11.22514990  0.00000000  0.00000000  1
  Mo  Mo21  1  9.62155706  0.00000000  2.26781788  1
  Mo  Mo22  1  11.22514990  2.26781788  2.26781788  1
  Mo  Mo23  1  9.62155706  4.53564569  2.26781788  1
  Mo  Mo24  1  3.24376547  2.33023388  4.45620082  1
  Mo  Mo25  1  1.76364432  4.50133972  4.22021947  1
  Mo  Mo26  1  3.13378780  4.39602885  6.62903437  1
  Mo  Mo27  1  5.22841765  2.21224321  6.88397087  1
  Mo  Mo28  1  0.38098884  4.22012018  6.84632864  1
  Mo  Mo29  1  1.50668222  6.51657435  6.72679892  1
  Mo  Mo30  1  9.57957569  2.24269658  4.33216316  1
  Mo  Mo31  1  9.86868908  4.16489303  6.88209422  1
  Mo  Mo32  1  6.25636535  2.48061415  4.35834690  1
  Mo  Mo33  1  4.71759141  4.49883752  4.44131669  1
  Mo  Mo34  1  8.07508786  4.41487479  4.32715876  1
  Mo  Mo35  1  6.57092771  4.31557119  6.82352089  1
  Mo  Mo36  1  8.20942228  1.67485591  6.90508071  1
  Mo  Mo37  1  0.21525479  2.49508124  4.69382051  1
  Mo  Mo38  1  11.20012789  1.83818408  6.52882719  1
  Mo  Mo39  1  11.03698838  4.48455909  4.37712333  1
  Mo  Mo40  1  4.53753226  6.35818108  6.83576380  1
  Mo  Mo41  1  6.11884361  6.61149910  4.68243152  1
  Mo  Mo42  1  2.23759288  1.81339045  6.78601766  1
  Mo  Mo43  1  11.39166539  6.18491362  7.08568597  1
  Mo  Mo44  1  8.27961297  6.25213544  6.35404053  1
  Mo  Mo45  1  8.05287587  0.02877987  4.34592526  1
  Mo  Mo46  1  11.30547848  0.12592225  4.51780261  1
  Mo  Mo47  1  1.65935617  0.01977404  4.26099938  1
  Mo  Mo48  1  0.09533076  6.46185361  4.55211851  1
  Mo  Mo49  1  2.10349678  4.34681890  9.05523558  1
  Mo  Mo50  1  1.77197506  1.99046086  10.41461563  1
  Mo  Mo51  1  7.86712719  6.00874678  11.39067245  1
  Mo  Mo52  1  0.16139095  1.70554759  8.75034443  1
  Mo  Mo53  1  5.22085147  6.68265295  11.42026197  1
  Mo  Mo54  1  11.09120273  4.75281088  11.73939184  1
  Mo  Mo55  1  5.53919692  4.44631117  9.39250641  1
  Mo  Mo56  1  6.72514071  1.94452760  8.97917663  1
  Mo  Mo57  1  8.23597340  4.05546148  9.17551994  1
  Mo  Mo58  1  0.76859957  4.24071368  11.91692893  1
  Mo  Mo59  1  7.44190203  0.68529813  11.39106963  1
  Mo  Mo60  1  8.69675563  3.33095525  11.49155483  1
  Mo  Mo61  1  6.08293901  3.71176635  11.53891791  1
  Mo  Mo62  1  11.48649085  2.27506632  11.08117407  1
  Mo  Mo63  1  9.72763249  2.05589539  9.35785291  1
  Mo  Mo64  1  12.39463080  4.03007208  9.21722328  1
  Mo  Mo65  1  10.48570990  6.22164235  9.72976730  1
  Mo  Mo66  1  4.24764438  2.41004614  9.49441151  1
  Mo  Mo67  1  1.92227589  1.45076002  12.73332152  1
  Mo  Mo68  1  3.22204995  4.91584116  11.43495743  1
  Mo  Mo69  1  2.79998233  6.74887190  9.18331449  1
  Mo  Mo70  1  0.76154177  6.73763186  12.58408313  1
  Mo  Mo71  1  0.39619368  6.38240874  9.97087220  1
  Mo  Mo72  1  3.34546206  0.21740449  11.26059774  1
  Mo  Mo73  1  0.00000000  6.80346356  0.00000000  1
  Mo  Mo74  1  3.20718569  6.80346356  0.00000000  1
  Mo  Mo75  1  1.60359284  9.07129137  0.00000000  1
  Mo  Mo76  1  0.00000000  11.33913904  0.00000000  1
  Mo  Mo77  1  3.20718569  11.33913904  0.00000000  1
  Mo  Mo78  1  1.60359284  6.80346356  2.26781788  1
  Mo  Mo79  1  0.00000000  9.07129137  2.26781788  1
  Mo  Mo80  1  3.20718569  9.07129137  2.26781788  1
  Mo  Mo81  1  1.60359284  11.33913904  2.26781788  1
  Mo  Mo82  1  6.41437137  6.80346356  0.00000000  1
  Mo  Mo83  1  4.81077853  9.07129137  0.00000000  1
  Mo  Mo84  1  8.01796421  9.07129137  0.00000000  1
  Mo  Mo85  1  6.41437137  11.33913904  0.00000000  1
  Mo  Mo86  1  4.81077853  6.80346356  2.26781788  1
  Mo  Mo87  1  8.01796421  6.80346356  2.26781788  1
  Mo  Mo88  1  6.41437137  9.07129137  2.26781788  1
  Mo  Mo89  1  4.81077853  11.33913904  2.26781788  1
  Mo  Mo90  1  8.01796421  11.33913904  2.26781788  1
  Mo  Mo91  1  9.62155706  6.80346356  0.00000000  1
  Mo  Mo92  1  11.22514990  9.07129137  0.00000000  1
  Mo  Mo93  1  9.62155706  11.33913904  0.00000000  1
  Mo  Mo94  1  11.22514990  6.80346356  2.26781788  1
  Mo  Mo95  1  9.62155706  9.07129137  2.26781788  1
  Mo  Mo96  1  11.22514990  11.33913904  2.26781788  1
  Mo  Mo97  1  1.52991694  9.07535248  4.54542611  1
  Mo  Mo98  1  3.16130208  11.26397372  4.80487055  1
  Mo  Mo99  1  1.16722693  11.07710303  6.93785755  1
  Mo  Mo100  1  3.20013583  8.74795145  6.73308421  1
  Mo  Mo101  1  0.12071231  8.94005492  6.71722701  1
  Mo  Mo102  1  4.83536364  13.69071113  4.65252427  1
  Mo  Mo103  1  0.17482538  11.65965902  4.49193661  1
  Mo  Mo104  1  9.52042645  11.17570165  4.18734333  1
  Mo  Mo105  1  6.55958837  8.13734500  6.88078355  1
  Mo  Mo106  1  5.15362966  10.82142182  6.58682462  1
  Mo  Mo107  1  4.45612138  8.87481898  4.26849605  1
  Mo  Mo108  1  8.17446097  8.63390273  4.62698594  1
  Mo  Mo109  1  6.52764559  11.38938164  4.17092016  1
  Mo  Mo110  1  7.96962805  10.96976657  6.47009498  1
  Mo  Mo111  1  11.31898242  9.07213537  4.80037255  1
  Mo  Mo112  1  11.20032648  10.96509976  6.67550380  1
  Mo  Mo113  1  3.12844580  6.82136621  4.37643821  1
  Mo  Mo114  1  0.05913494  13.45339925  6.42193755  1
  Mo  Mo115  1  9.59342716  13.23415881  6.43737771  1
  Mo  Mo116  1  3.23816531  12.68804360  6.98430713  1
  Mo  Mo117  1  9.68629653  6.93988314  4.50545048  1
  Mo  Mo118  1  6.46120820  13.11431135  6.85751904  1
  Mo  Mo119  1  1.29538528  9.03777976  8.81362429  1
  Mo  Mo120  1  3.55416743  11.00541300  8.95814623  1
  Mo  Mo121  1  3.22829552  8.53384450  11.19029782  1
  Mo  Mo122  1  0.09109231  11.22892306  9.25461728  1
  Mo  Mo123  1  10.48292968  7.49976046  11.96488777  1
  Mo  Mo124  1  4.58950257  8.69647761  9.03839538  1
  Mo  Mo125  1  6.90121819  10.59503224  9.41939513  1
  Mo  Mo126  1  8.67316345  9.20306401  10.72868153  1
  Mo  Mo127  1  7.77581673  11.53703133  11.35552249  1
  Mo  Mo128  1  7.14586787  7.40442860  9.44507248  1
  Mo  Mo129  1  9.75172113  10.76591665  8.91707836  1
  Mo  Mo130  1  11.56791166  8.83923212  9.18481383  1
  Mo  Mo131  1  10.86024564  10.72739071  11.22673860  1
  Mo  Mo132  1  12.89189352  8.94419547  11.40556650  1
  Mo  Mo133  1  4.62489084  11.43128357  11.32414569  1
  Mo  Mo134  1  1.86745585  11.39404844  11.16239630  1
  Mo  Mo135  1  6.13288373  8.88297099  11.43753907  1
  Mo  Mo136  1  8.47183560  13.24200301  8.99748638  1
  Mo  Mo137  1  0.13843028  13.35152394  11.27330733  1
  Mo  Mo138  1  11.15405563  13.08164373  8.71539305  1
  Mo  Mo139  1  1.99674615  13.52489069  9.11898212  1
  Mo  Mo140  1  5.28793428  13.14121993  9.61092270  1
  Mo  Mo141  1  5.54758724  13.14618462  12.40317005  1
  Mo  Mo142  1  9.68484684  13.30336650  11.22197250  1
  Mo  Mo143  1  9.01108962  8.35324916  7.51809007  1
