# generated using pymatgen
data_Mo
_symmetry_space_group_name_H-M   'P 1'
_cell_length_a   12.82874274
_cell_length_b   12.82874274
_cell_length_c   29.78810234
_cell_angle_alpha   90.00000000
_cell_angle_beta   90.00000000
_cell_angle_gamma   90.00000000
_symmetry_Int_Tables_number   1
_chemical_formula_structural   Mo
_chemical_formula_sum   Mo128
_cell_volume   4902.42580387
_cell_formula_units_Z   128
loop_
 _symmetry_equiv_pos_site_id
 _symmetry_equiv_pos_as_xyz
  1  'x, y, z'
loop_
 _atom_site_type_symbol
 _atom_site_label
 _atom_site_symmetry_multiplicity
 _atom_site_fract_x
 _atom_site_fract_y
 _atom_site_fract_z
 _atom_site_occupancy
  Mo  Mo0  1  0.00000000  0.00000000  0.00000000  1
  Mo  Mo1  1  1.60359284  1.60359284  1.60359284  1
  Mo  Mo2  1  0.00000000  3.20718569  0.00000000  1
  Mo  Mo3  1  1.60359284  4.81077853  1.60359284  1
  Mo  Mo4  1  3.20718569  0.00000000  0.00000000  1
  Mo  Mo5  1  3.20718569  3.20718569  0.00000000  1
  Mo  Mo6  1  3.17774511  3.15099539  3.38230994  1
  Mo  Mo7  1  6.51285084  6.53679054  3.05732174  1
  Mo  Mo8  1  4.81077853  1.60359284  1.60359284  1
  Mo  Mo9  1  4.81077853  4.81077853  1.60359284  1
  Mo  Mo10  1  6.41437137  0.00000000  0.00000000  1
  Mo  Mo11  1  8.01796421  1.60359284  1.60359284  1
  Mo  Mo12  1  6.41437137  3.20718569  0.00000000  1
  Mo  Mo13  1  8.01796421  4.81077853  1.60359284  1
  Mo  Mo14  1  6.51712046  3.12140588  3.05628909  1
  Mo  Mo15  1  11.18692183  4.83017058  4.72713354  1
  Mo  Mo16  1  -0.08540418  3.28423758  3.14205896  1
  Mo  Mo17  1  9.62155706  0.00000000  0.00000000  1
  Mo  Mo18  1  11.22514990  1.60359284  1.60359284  1
  Mo  Mo19  1  9.62155706  3.20718569  0.00000000  1
  Mo  Mo20  1  11.22514990  4.81077853  1.60359284  1
  Mo  Mo21  1  9.57385637  3.31310225  3.16296028  1
  Mo  Mo22  1  12.93250463  3.23410420  6.31869199  1
  Mo  Mo23  1  11.09577024  1.63413558  4.64187999  1
  Mo  Mo24  1  1.52026559  1.76554083  4.72112627  1
  Mo  Mo25  1  1.60160697  4.74429148  4.93253243  1
  Mo  Mo26  1  3.19547896  3.29908198  6.43548121  1
  Mo  Mo27  1  9.77437995  6.30491002  6.27719716  1
  Mo  Mo28  1  9.51318794  0.00331587  3.25298986  1
  Mo  Mo29  1  9.74419467  3.19706766  6.42316879  1
  Mo  Mo30  1  8.08742014  4.71115718  4.68170668  1
  Mo  Mo31  1  4.87471372  4.86851780  4.68560892  1
  Mo  Mo32  1  8.16010311  1.46919885  5.04018663  1
  Mo  Mo33  1  5.00466929  1.71838626  4.70367044  1
  Mo  Mo34  1  6.35599662  3.33041906  6.55278675  1
  Mo  Mo35  1  9.37930035  6.37688801  3.05500820  1
  Mo  Mo36  1  6.37819868  6.40278380  6.31201945  1
  Mo  Mo37  1  3.08526298  6.33713082  6.30123616  1
  Mo  Mo38  1  3.32119468  0.10111869  3.12490102  1
  Mo  Mo39  1  6.70445784  -0.14713734  6.28377040  1
  Mo  Mo40  1  1.65983278  1.65115451  7.87131739  1
  Mo  Mo41  1  1.68138944  4.61882400  8.05425605  1
  Mo  Mo42  1  3.37394941  3.00623515  9.67225641  1
  Mo  Mo43  1  2.07444345  4.53976637  10.98178110  1
  Mo  Mo44  1  1.45656870  1.80810802  11.66819827  1
  Mo  Mo45  1  6.58616929  0.24533282  9.37875423  1
  Mo  Mo46  1  5.04195406  1.44147606  8.00588017  1
  Mo  Mo47  1  4.73945588  4.94478527  7.79945855  1
  Mo  Mo48  1  8.28922460  1.27166402  7.89040163  1
  Mo  Mo49  1  8.15528736  4.93504456  8.23586418  1
  Mo  Mo50  1  6.18815059  3.08988014  9.53966956  1
  Mo  Mo51  1  5.05249905  5.24523800  10.66076465  1
  Mo  Mo52  1  8.18429105  4.60094121  10.72560342  1
  Mo  Mo53  1  10.00234830  6.56123664  9.56108721  1
  Mo  Mo54  1  11.25176060  1.27945857  11.06856377  1
  Mo  Mo55  1  12.93180957  3.01930219  9.36374103  1
  Mo  Mo56  1  11.26377514  1.57731974  7.77169604  1
  Mo  Mo57  1  11.30756365  4.91884976  7.73061825  1
  Mo  Mo58  1  9.61822079  3.09294831  9.47268605  1
  Mo  Mo59  1  11.01335649  4.56088614  10.65351621  1
  Mo  Mo60  1  3.84353899  0.92533662  11.64178616  1
  Mo  Mo61  1  8.78184038  1.26093037  11.14770083  1
  Mo  Mo62  1  6.90539845  6.82333223  9.61764488  1
  Mo  Mo63  1  3.47251824  6.57495903  9.41913697  1
  Mo  Mo64  1  0.21550203  6.31790757  9.45553803  1
  Mo  Mo65  1  0.00000000  6.41437137  0.00000000  1
  Mo  Mo66  1  1.60359284  8.01796421  1.60359284  1
  Mo  Mo67  1  0.00000000  9.62155706  0.00000000  1
  Mo  Mo68  1  1.60359284  11.22514990  1.60359284  1
  Mo  Mo69  1  3.20718569  6.41437137  0.00000000  1
  Mo  Mo70  1  3.20718569  9.62155706  0.00000000  1
  Mo  Mo71  1  3.43121207  9.42833156  3.17655359  1
  Mo  Mo72  1  9.72184367  9.49852226  6.28129799  1
  Mo  Mo73  1  11.26645607  7.85677086  4.73050952  1
  Mo  Mo74  1  -0.07964197  9.51822213  6.19842749  1
  Mo  Mo75  1  4.81077853  8.01796421  1.60359284  1
  Mo  Mo76  1  4.81077853  11.22514990  1.60359284  1
  Mo  Mo77  1  6.41437137  6.41437137  0.00000000  1
  Mo  Mo78  1  8.01796421  8.01796421  1.60359284  1
  Mo  Mo79  1  6.41437137  9.62155706  0.00000000  1
  Mo  Mo80  1  8.01796421  11.22514990  1.60359284  1
  Mo  Mo81  1  6.64703631  9.68584971  3.04088864  1
  Mo  Mo82  1  6.82868416  9.56469157  6.16135123  1
  Mo  Mo83  1  -0.02830644  9.67399404  3.28148714  1
  Mo  Mo84  1  9.62155706  6.41437137  0.00000000  1
  Mo  Mo85  1  11.22514990  8.01796421  1.60359284  1
  Mo  Mo86  1  9.62155706  9.62155706  0.00000000  1
  Mo  Mo87  1  11.22514990  11.22514990  1.60359284  1
  Mo  Mo88  1  9.66794706  9.58514606  2.96469067  1
  Mo  Mo89  1  11.22514990  11.39752372  4.70142640  1
  Mo  Mo90  1  1.60126937  8.06401662  4.68277905  1
  Mo  Mo91  1  1.60575744  11.42175137  4.80334143  1
  Mo  Mo92  1  3.45718730  9.72916161  6.23817474  1
  Mo  Mo93  1  8.26763816  11.17490730  4.71202104  1
  Mo  Mo94  1  8.07353888  7.91717120  4.69407867  1
  Mo  Mo95  1  5.03165731  7.97960707  4.72096740  1
  Mo  Mo96  1  4.98515808  11.14382838  4.72262560  1
  Mo  Mo97  1  0.09464504  6.57940739  3.22697491  1
  Mo  Mo98  1  3.09823074  6.45318527  3.21094892  1
  Mo  Mo99  1  9.72003652  12.61416911  6.35498382  1
  Mo  Mo100  1  3.56507981  12.84194880  6.19811968  1
  Mo  Mo101  1  0.00056638  12.96686024  3.04300359  1
  Mo  Mo102  1  12.83152296  12.76459903  6.44513255  1
  Mo  Mo103  1  6.60678265  12.71376067  3.27128968  1
  Mo  Mo104  1  0.02413055  6.48443299  6.35457672  1
  Mo  Mo105  1  1.79654031  7.86774281  7.90353818  1
  Mo  Mo106  1  1.71096902  11.27320804  7.78772204  1
  Mo  Mo107  1  3.02201291  9.65307287  9.45388976  1
  Mo  Mo108  1  12.97708749  9.63218148  9.58172043  1
  Mo  Mo109  1  2.01193808  12.20011449  11.62639564  1
  Mo  Mo110  1  9.82394735  9.51366455  9.58509642  1
  Mo  Mo111  1  4.87832801  8.59880242  10.89331044  1
  Mo  Mo112  1  5.24387768  11.17460942  11.13340254  1
  Mo  Mo113  1  4.99563356  8.07848371  7.75297918  1
  Mo  Mo114  1  4.92884864  11.21472406  7.80757085  1
  Mo  Mo115  1  8.19693113  7.93702001  7.78566666  1
  Mo  Mo116  1  8.04903320  11.59263579  10.83770598  1
  Mo  Mo117  1  8.36074584  10.88407613  7.76893568  1
  Mo  Mo118  1  6.60757700  9.74035201  9.37550733  1
  Mo  Mo119  1  7.94100169  8.23116759  11.35006134  1
  Mo  Mo120  1  1.81314221  7.45419459  11.22385908  1
  Mo  Mo121  1  11.19228369  11.27638543  11.03291734  1
  Mo  Mo122  1  11.75726470  7.95640213  11.04364106  1
  Mo  Mo123  1  11.51389590  8.05534828  7.95373113  1
  Mo  Mo124  1  11.27221510  11.22286614  8.07894046  1
  Mo  Mo125  1  3.26164827  12.88345356  9.37215120  1
  Mo  Mo126  1  9.79871683  12.78058531  9.41816389  1
  Mo  Mo127  1  0.26864897  12.65249647  9.87229344  1
