# generated using pymatgen
data_Mo
_symmetry_space_group_name_H-M   'P 1'
_cell_length_a   12.82874274
_cell_length_b   12.82874274
_cell_length_c   29.78810234
_cell_angle_alpha   90.00000000
_cell_angle_beta   90.00000000
_cell_angle_gamma   90.00000000
_symmetry_Int_Tables_number   1
_chemical_formula_structural   Mo
_chemical_formula_sum   Mo128
_cell_volume   4902.42580387
_cell_formula_units_Z   128
loop_
 _symmetry_equiv_pos_site_id
 _symmetry_equiv_pos_as_xyz
  1  'x, y, z'
loop_
 _atom_site_type_symbol
 _atom_site_label
 _atom_site_symmetry_multiplicity
 _atom_site_fract_x
 _atom_site_fract_y
 _atom_site_fract_z
 _atom_site_occupancy
  Mo  Mo0  1  0.00000000  0.00000000  0.00000000  1
  Mo  Mo1  1  1.60359284  1.60359284  1.60359284  1
  Mo  Mo2  1  0.00000000  3.20718569  0.00000000  1
  Mo  Mo3  1  1.60359284  4.81077853  1.60359284  1
  Mo  Mo4  1  3.20718569  0.00000000  0.00000000  1
  Mo  Mo5  1  3.20718569  3.20718569  0.00000000  1
  Mo  Mo6  1  3.08364450  3.28797102  3.22791820  1
  Mo  Mo7  1  10.95189371  4.61374016  4.57890794  1
  Mo  Mo8  1  4.81077853  1.60359284  1.60359284  1
  Mo  Mo9  1  4.81077853  4.81077853  1.60359284  1
  Mo  Mo10  1  6.41437137  0.00000000  0.00000000  1
  Mo  Mo11  1  8.01796421  1.60359284  1.60359284  1
  Mo  Mo12  1  6.41437137  3.20718569  0.00000000  1
  Mo  Mo13  1  8.01796421  4.81077853  1.60359284  1
  Mo  Mo14  1  6.34793397  3.16041836  3.08892692  1
  Mo  Mo15  1  7.98621010  1.60723692  4.42390058  1
  Mo  Mo16  1  11.34877052  1.53416671  4.65596976  1
  Mo  Mo17  1  0.12869751  3.33386456  3.39908064  1
  Mo  Mo18  1  9.62155706  0.00000000  0.00000000  1
  Mo  Mo19  1  11.22514990  1.60359284  1.60359284  1
  Mo  Mo20  1  9.62155706  3.20718569  0.00000000  1
  Mo  Mo21  1  11.22514990  4.81077853  1.60359284  1
  Mo  Mo22  1  9.52480530  3.32533523  3.10300676  1
  Mo  Mo23  1  4.87561730  1.68586758  4.66405226  1
  Mo  Mo24  1  12.80352215  3.26111208  6.36921261  1
  Mo  Mo25  1  1.77196513  1.47626856  4.75732874  1
  Mo  Mo26  1  1.59724798  4.86276870  4.77012770  1
  Mo  Mo27  1  3.20678851  3.21199150  6.43957210  1
  Mo  Mo28  1  9.06376491  2.92041562  6.35184614  1
  Mo  Mo29  1  7.90532547  5.03209420  4.77853787  1
  Mo  Mo30  1  6.42542276  6.53116059  6.34752687  1
  Mo  Mo31  1  6.67592084  2.94878383  6.62533071  1
  Mo  Mo32  1  4.49240329  4.75449887  4.78365150  1
  Mo  Mo33  1  9.57994308  6.33639605  6.46658991  1
  Mo  Mo34  1  3.37771264  0.10339252  6.48086834  1
  Mo  Mo35  1  9.74895084  -0.01359896  3.09366323  1
  Mo  Mo36  1  9.51531282  6.38415631  3.28601493  1
  Mo  Mo37  1  6.50677406  0.14248642  2.90407189  1
  Mo  Mo38  1  12.66878063  6.11056251  6.53889557  1
  Mo  Mo39  1  6.37622274  0.10372813  6.44070405  1
  Mo  Mo40  1  1.35064221  1.53538802  7.97185223  1
  Mo  Mo41  1  3.34640535  3.35375308  9.40498762  1
  Mo  Mo42  1  1.58620652  4.89002481  7.58173731  1
  Mo  Mo43  1  12.73431446  3.41511657  9.69855930  1
  Mo  Mo44  1  10.18097762  -0.10703461  10.16161535  1
  Mo  Mo45  1  4.16027588  5.40175462  11.89250268  1
  Mo  Mo46  1  4.70379952  1.57132240  8.14313382  1
  Mo  Mo47  1  4.83061740  4.73434226  7.97143520  1
  Mo  Mo48  1  8.18644572  1.23540197  8.37717894  1
  Mo  Mo49  1  7.87057268  4.93146006  7.91611869  1
  Mo  Mo50  1  6.46821833  3.63607478  9.70645315  1
  Mo  Mo51  1  11.60474962  5.35273333  11.58439441  1
  Mo  Mo52  1  4.68778345  2.03034713  11.03400957  1
  Mo  Mo53  1  11.42423372  1.97564624  11.37458688  1
  Mo  Mo54  1  11.05128667  1.79087064  7.93743704  1
  Mo  Mo55  1  10.87950862  4.65593004  7.95394958  1
  Mo  Mo56  1  9.60111249  3.56752243  9.77714031  1
  Mo  Mo57  1  8.04719627  1.96951982  11.40248840  1
  Mo  Mo58  1  1.72252681  1.70570646  10.93044627  1
  Mo  Mo59  1  3.04293409  3.17492517  12.77204605  1
  Mo  Mo60  1  1.69790197  4.56457986  11.27469744  1
  Mo  Mo61  1  6.50329879  0.29023243  9.87373320  1
  Mo  Mo62  1  3.15395435  6.24645584  9.55997512  1
  Mo  Mo63  1  12.93111452  6.23146249  9.25074483  1
  Mo  Mo64  1  12.60930372  0.22483662  10.04097354  1
  Mo  Mo65  1  9.32327886  6.35670160  9.37931028  1
  Mo  Mo66  1  0.00000000  6.41437137  0.00000000  1
  Mo  Mo67  1  1.60359284  8.01796421  1.60359284  1
  Mo  Mo68  1  0.00000000  9.62155706  0.00000000  1
  Mo  Mo69  1  1.60359284  11.22514990  1.60359284  1
  Mo  Mo70  1  3.20718569  6.41437137  0.00000000  1
  Mo  Mo71  1  3.20718569  9.62155706  0.00000000  1
  Mo  Mo72  1  3.42099475  9.88018729  3.20648070  1
  Mo  Mo73  1  3.05878136  12.80153627  2.98851123  1
  Mo  Mo74  1  9.40599049  9.68777601  6.31984379  1
  Mo  Mo75  1  4.81077853  8.01796421  1.60359284  1
  Mo  Mo76  1  4.81077853  11.22514990  1.60359284  1
  Mo  Mo77  1  6.41437137  6.41437137  0.00000000  1
  Mo  Mo78  1  8.01796421  8.01796421  1.60359284  1
  Mo  Mo79  1  6.41437137  9.62155706  0.00000000  1
  Mo  Mo80  1  8.01796421  11.22514990  1.60359284  1
  Mo  Mo81  1  6.50891881  9.74174212  3.31114616  1
  Mo  Mo82  1  12.81146564  9.27952013  3.07949402  1
  Mo  Mo83  1  9.62155706  6.41437137  0.00000000  1
  Mo  Mo84  1  11.22514990  8.01796421  1.60359284  1
  Mo  Mo85  1  9.62155706  9.62155706  0.00000000  1
  Mo  Mo86  1  11.22514990  11.22514990  1.60359284  1
  Mo  Mo87  1  9.66612006  9.62058398  3.17811250  1
  Mo  Mo88  1  11.33367788  10.89847371  4.56675439  1
  Mo  Mo89  1  11.07005318  8.06699543  4.86835893  1
  Mo  Mo90  1  12.65785833  9.34888670  6.36297696  1
  Mo  Mo91  1  1.59225350  7.93584834  4.96454471  1
  Mo  Mo92  1  1.40418136  11.05605277  4.78141739  1
  Mo  Mo93  1  3.37527002  9.72528916  6.55596415  1
  Mo  Mo94  1  4.68920335  11.17719105  4.77808112  1
  Mo  Mo95  1  4.86433754  8.26337846  4.82073768  1
  Mo  Mo96  1  8.01717979  11.18990064  4.57080558  1
  Mo  Mo97  1  7.97942834  7.96872448  4.74479788  1
  Mo  Mo98  1  6.43928415  9.54719602  6.39448285  1
  Mo  Mo99  1  9.52071440  12.80947977  6.22434314  1
  Mo  Mo100  1  0.09930758  12.87183620  3.30823686  1
  Mo  Mo101  1  12.95216478  12.58219655  6.33224557  1
  Mo  Mo102  1  6.34155932  6.34290971  2.95943804  1
  Mo  Mo103  1  3.41903867  6.71636315  6.15421201  1
  Mo  Mo104  1  3.19228170  6.63404870  3.22729265  1
  Mo  Mo105  1  12.76737925  6.42805404  3.52524318  1
  Mo  Mo106  1  1.45835598  8.09019043  8.01083493  1
  Mo  Mo107  1  1.55123529  11.14104816  8.02921419  1
  Mo  Mo108  1  3.37794102  9.31200903  9.56359934  1
  Mo  Mo109  1  11.12684916  10.16360122  11.82716745  1
  Mo  Mo110  1  4.94211427  7.88611214  7.89201019  1
  Mo  Mo111  1  4.72122556  11.11463604  8.13065260  1
  Mo  Mo112  1  7.76275961  8.10009001  8.02747655  1
  Mo  Mo113  1  7.64339868  11.17907763  8.13608397  1
  Mo  Mo114  1  6.54574683  9.46743341  9.85610857  1
  Mo  Mo115  1  7.93627531  11.18662395  11.51111568  1
  Mo  Mo116  1  3.88025779  7.95546877  11.54944304  1
  Mo  Mo117  1  0.12293252  9.44376180  9.92267505  1
  Mo  Mo118  1  9.29505960  9.47458256  9.80460494  1
  Mo  Mo119  1  11.23478138  7.74454915  7.96163491  1
  Mo  Mo120  1  10.85597602  10.85438732  8.19130118  1
  Mo  Mo121  1  11.34033056  7.68636306  11.23567503  1
  Mo  Mo122  1  5.36101442  11.29266960  11.43664542  1
  Mo  Mo123  1  1.44885358  7.26037334  11.00015043  1
  Mo  Mo124  1  1.64711326  11.31262763  10.67655235  1
  Mo  Mo125  1  3.31339020  12.76211668  9.72211176  1
  Mo  Mo126  1  6.20031407  6.46255859  9.68865972  1
  Mo  Mo127  1  0.20675028  12.46215049  12.33634541  1
