# generated using pymatgen
data_Mo
_symmetry_space_group_name_H-M   'P 1'
_cell_length_a   12.82874274
_cell_length_b   12.82874274
_cell_length_c   29.78810234
_cell_angle_alpha   90.00000000
_cell_angle_beta   90.00000000
_cell_angle_gamma   90.00000000
_symmetry_Int_Tables_number   1
_chemical_formula_structural   Mo
_chemical_formula_sum   Mo128
_cell_volume   4902.42580387
_cell_formula_units_Z   128
loop_
 _symmetry_equiv_pos_site_id
 _symmetry_equiv_pos_as_xyz
  1  'x, y, z'
loop_
 _atom_site_type_symbol
 _atom_site_label
 _atom_site_symmetry_multiplicity
 _atom_site_fract_x
 _atom_site_fract_y
 _atom_site_fract_z
 _atom_site_occupancy
  Mo  Mo0  1  0.00000000  0.00000000  0.00000000  1
  Mo  Mo1  1  1.60359284  1.60359284  1.60359284  1
  Mo  Mo2  1  0.00000000  3.20718569  0.00000000  1
  Mo  Mo3  1  1.60359284  4.81077853  1.60359284  1
  Mo  Mo4  1  3.20718569  0.00000000  0.00000000  1
  Mo  Mo5  1  3.20718569  3.20718569  0.00000000  1
  Mo  Mo6  1  3.38492136  3.31637894  3.18668154  1
  Mo  Mo7  1  0.14095631  3.04939811  3.38690724  1
  Mo  Mo8  1  9.57206909  6.30162340  3.14608036  1
  Mo  Mo9  1  11.58280571  1.39169021  4.95108049  1
  Mo  Mo10  1  4.81077853  1.60359284  1.60359284  1
  Mo  Mo11  1  4.81077853  4.81077853  1.60359284  1
  Mo  Mo12  1  6.41437137  0.00000000  0.00000000  1
  Mo  Mo13  1  8.01796421  1.60359284  1.60359284  1
  Mo  Mo14  1  6.41437137  3.20718569  0.00000000  1
  Mo  Mo15  1  8.01796421  4.81077853  1.60359284  1
  Mo  Mo16  1  6.44499354  3.20662964  3.16770652  1
  Mo  Mo17  1  0.13668966  3.38094962  6.50234557  1
  Mo  Mo18  1  9.62155706  0.00000000  0.00000000  1
  Mo  Mo19  1  11.22514990  1.60359284  1.60359284  1
  Mo  Mo20  1  9.62155706  3.20718569  0.00000000  1
  Mo  Mo21  1  11.22514990  4.81077853  1.60359284  1
  Mo  Mo22  1  9.79493374  3.22052083  3.31419448  1
  Mo  Mo23  1  9.73968674  2.78950684  6.31854305  1
  Mo  Mo24  1  11.24431358  4.68553942  4.78211244  1
  Mo  Mo25  1  1.84555167  1.79849640  4.75180801  1
  Mo  Mo26  1  1.81236772  4.86501273  4.85987925  1
  Mo  Mo27  1  3.37099046  3.21936902  6.12895170  1
  Mo  Mo28  1  5.12991833  4.67577885  4.96305531  1
  Mo  Mo29  1  8.24222891  1.63382777  4.69566737  1
  Mo  Mo30  1  4.86839865  1.51634349  4.85438831  1
  Mo  Mo31  1  6.43010942  3.04746188  6.69083475  1
  Mo  Mo32  1  8.08621868  4.42937167  4.71001531  1
  Mo  Mo33  1  9.97196443  -0.19129522  6.57363842  1
  Mo  Mo34  1  9.76262358  -0.07116050  3.26806264  1
  Mo  Mo35  1  9.79851824  6.26010872  6.10601486  1
  Mo  Mo36  1  6.37558726  -0.00799798  3.11153609  1
  Mo  Mo37  1  6.31566353  6.48657773  3.06674471  1
  Mo  Mo38  1  3.13736237  6.66989371  3.19969894  1
  Mo  Mo39  1  1.40745805  1.62413670  8.04529976  1
  Mo  Mo40  1  3.16609796  3.20515016  10.02607949  1
  Mo  Mo41  1  1.89062107  4.63445282  8.10895694  1
  Mo  Mo42  1  2.40126858  2.11574962  12.09953000  1
  Mo  Mo43  1  1.11865247  5.14712592  11.84027421  1
  Mo  Mo44  1  11.75289578  4.58815218  11.55758512  1
  Mo  Mo45  1  11.38898446  1.49681243  11.51995282  1
  Mo  Mo46  1  7.79767127  1.84350622  11.27142075  1
  Mo  Mo47  1  4.57726959  1.52747431  8.27703134  1
  Mo  Mo48  1  4.61556716  4.75885787  8.14846589  1
  Mo  Mo49  1  8.24933833  1.52978785  7.92817294  1
  Mo  Mo50  1  8.18883870  4.57911646  7.88642988  1
  Mo  Mo51  1  6.72238035  3.24179946  9.53407933  1
  Mo  Mo52  1  0.66629630  2.61889052  10.57715938  1
  Mo  Mo53  1  11.34301149  1.31600857  8.51057999  1
  Mo  Mo54  1  11.32474145  4.55038087  7.95159632  1
  Mo  Mo55  1  9.83029222  3.16767673  9.53379138  1
  Mo  Mo56  1  2.67993627  0.22672718  10.00701510  1
  Mo  Mo57  1  1.80157450  4.29281307  14.12839765  1
  Mo  Mo58  1  4.56305074  1.61005686  11.08355712  1
  Mo  Mo59  1  0.86196740  -0.00212365  12.25998857  1
  Mo  Mo60  1  3.42725026  5.22829850  12.72508014  1
  Mo  Mo61  1  11.95297253  5.61015218  13.70600235  1
  Mo  Mo62  1  6.77803445  6.36199396  9.51559085  1
  Mo  Mo63  1  9.43378279  6.28229092  9.52099242  1
  Mo  Mo64  1  6.51182811  0.63314711  9.67695300  1
  Mo  Mo65  1  0.00000000  6.41437137  0.00000000  1
  Mo  Mo66  1  1.60359284  8.01796421  1.60359284  1
  Mo  Mo67  1  0.00000000  9.62155706  0.00000000  1
  Mo  Mo68  1  1.60359284  11.22514990  1.60359284  1
  Mo  Mo69  1  3.20718569  6.41437137  0.00000000  1
  Mo  Mo70  1  3.20718569  9.62155706  0.00000000  1
  Mo  Mo71  1  3.03847580  9.78478593  3.25560128  1
  Mo  Mo72  1  0.30509471  6.40149298  6.50106468  1
  Mo  Mo73  1  4.81077853  8.01796421  1.60359284  1
  Mo  Mo74  1  4.81077853  11.22514990  1.60359284  1
  Mo  Mo75  1  6.41437137  6.41437137  0.00000000  1
  Mo  Mo76  1  8.01796421  8.01796421  1.60359284  1
  Mo  Mo77  1  6.41437137  9.62155706  0.00000000  1
  Mo  Mo78  1  8.01796421  11.22514990  1.60359284  1
  Mo  Mo79  1  6.38826706  9.69322723  2.82526250  1
  Mo  Mo80  1  0.23688194  9.59596908  6.35674132  1
  Mo  Mo81  1  11.34340866  11.27122216  4.90845372  1
  Mo  Mo82  1  12.78505352  9.54966844  3.24049871  1
  Mo  Mo83  1  9.62155706  6.41437137  0.00000000  1
  Mo  Mo84  1  11.22514990  8.01796421  1.60359284  1
  Mo  Mo85  1  9.62155706  9.62155706  0.00000000  1
  Mo  Mo86  1  11.22514990  11.22514990  1.60359284  1
  Mo  Mo87  1  9.76031997  9.67529479  3.00989908  1
  Mo  Mo88  1  1.98932891  7.99215779  4.92985150  1
  Mo  Mo89  1  1.71244850  11.42949628  4.70707621  1
  Mo  Mo90  1  3.45789228  9.73589372  6.39025294  1
  Mo  Mo91  1  9.94724031  9.56270569  6.35802221  1
  Mo  Mo92  1  8.25894996  7.77215279  4.56650616  1
  Mo  Mo93  1  4.95219258  8.25074830  4.80984517  1
  Mo  Mo94  1  6.62857761  9.54681871  6.16912592  1
  Mo  Mo95  1  7.98931799  10.98406486  4.74073677  1
  Mo  Mo96  1  4.99912870  11.10679184  4.65658538  1
  Mo  Mo97  1  11.40278628  7.85853829  4.91677453  1
  Mo  Mo98  1  3.13094800  12.97490303  3.14254550  1
  Mo  Mo99  1  -0.01654143  12.54128755  6.39980499  1
  Mo  Mo100  1  6.74290435  6.28377040  6.14442166  1
  Mo  Mo101  1  3.55980731  12.84274315  6.26927352  1
  Mo  Mo102  1  0.07730430  12.79279843  3.17398188  1
  Mo  Mo103  1  3.33455961  6.49554395  6.32694329  1
  Mo  Mo104  1  6.51608781  12.94054742  6.46531895  1
  Mo  Mo105  1  0.05081453  6.42189783  3.30248775  1
  Mo  Mo106  1  1.86089254  8.11704937  7.95963911  1
  Mo  Mo107  1  1.65105522  11.20102154  8.22488230  1
  Mo  Mo108  1  3.41553360  9.25889684  9.77591900  1
  Mo  Mo109  1  11.85417533  7.22817240  11.80512425  1
  Mo  Mo110  1  4.80462232  11.17123343  7.94087260  1
  Mo  Mo111  1  8.24493962  7.78302545  7.75346572  1
  Mo  Mo112  1  8.10786471  11.03400957  7.79961742  1
  Mo  Mo113  1  6.82912105  9.41893838  9.47053138  1
  Mo  Mo114  1  4.99477964  8.01373430  8.03526117  1
  Mo  Mo115  1  4.69201336  11.24153335  10.75707952  1
  Mo  Mo116  1  9.84891971  12.39105622  9.55319336  1
  Mo  Mo117  1  0.15669138  9.21906022  9.55341181  1
  Mo  Mo118  1  7.59537033  11.16894968  11.04522976  1
  Mo  Mo119  1  10.05020785  9.01607416  9.79869697  1
  Mo  Mo120  1  11.17530447  8.03287812  7.92035853  1
  Mo  Mo121  1  11.40785026  10.86689832  8.04359191  1
  Mo  Mo122  1  0.31639135  6.32326942  9.52069454  1
  Mo  Mo123  1  1.47728136  7.89934799  11.27777555  1
  Mo  Mo124  1  2.14137731  10.95050359  11.07213835  1
  Mo  Mo125  1  3.25901698  12.45917168  12.60989948  1
  Mo  Mo126  1  3.51131228  6.34794390  9.86155980  1
  Mo  Mo127  1  0.01606701  12.22722166  9.90402770  1
