# generated using pymatgen
data_Mo
_symmetry_space_group_name_H-M   'P 1'
_cell_length_a   12.82874274
_cell_length_b   12.82874274
_cell_length_c   29.78810234
_cell_angle_alpha   90.00000000
_cell_angle_beta   90.00000000
_cell_angle_gamma   90.00000000
_symmetry_Int_Tables_number   1
_chemical_formula_structural   Mo
_chemical_formula_sum   Mo128
_cell_volume   4902.42580387
_cell_formula_units_Z   128
loop_
 _symmetry_equiv_pos_site_id
 _symmetry_equiv_pos_as_xyz
  1  'x, y, z'
loop_
 _atom_site_type_symbol
 _atom_site_label
 _atom_site_symmetry_multiplicity
 _atom_site_fract_x
 _atom_site_fract_y
 _atom_site_fract_z
 _atom_site_occupancy
  Mo  Mo0  1  0.00000000  0.00000000  0.00000000  1
  Mo  Mo1  1  1.60359284  1.60359284  1.60359284  1
  Mo  Mo2  1  0.00000000  3.20718569  0.00000000  1
  Mo  Mo3  1  1.60359284  4.81077853  1.60359284  1
  Mo  Mo4  1  3.20718569  0.00000000  0.00000000  1
  Mo  Mo5  1  3.20718569  3.20718569  0.00000000  1
  Mo  Mo6  1  3.27677069  3.00819123  3.22515784  1
  Mo  Mo7  1  0.18252560  3.23884051  3.45729652  1
  Mo  Mo8  1  12.86081460  -0.11677830  3.09343485  1
  Mo  Mo9  1  11.16746027  1.34443635  4.82210794  1
  Mo  Mo10  1  4.81077853  1.60359284  1.60359284  1
  Mo  Mo11  1  4.81077853  4.81077853  1.60359284  1
  Mo  Mo12  1  6.41437137  0.00000000  0.00000000  1
  Mo  Mo13  1  8.01796421  1.60359284  1.60359284  1
  Mo  Mo14  1  6.41437137  3.20718569  0.00000000  1
  Mo  Mo15  1  8.01796421  4.81077853  1.60359284  1
  Mo  Mo16  1  6.42857037  3.32183016  3.23386590  1
  Mo  Mo17  1  9.44593633  3.00097258  6.47009498  1
  Mo  Mo18  1  9.62155706  0.00000000  0.00000000  1
  Mo  Mo19  1  11.22514990  1.60359284  1.60359284  1
  Mo  Mo20  1  9.62155706  3.20718569  0.00000000  1
  Mo  Mo21  1  11.22514990  4.81077853  1.60359284  1
  Mo  Mo22  1  9.87522261  3.11309500  3.23749011  1
  Mo  Mo23  1  11.11523180  4.76740705  4.86734613  1
  Mo  Mo24  1  12.50147079  3.10264930  6.20381913  1
  Mo  Mo25  1  1.44009588  1.28312251  4.88690699  1
  Mo  Mo26  1  1.49967208  5.14003635  4.80417550  1
  Mo  Mo27  1  2.92694915  3.06990225  6.07132165  1
  Mo  Mo28  1  6.39862339  2.99973141  6.26660252  1
  Mo  Mo29  1  4.82546406  4.96539864  4.74668446  1
  Mo  Mo30  1  4.88138626  1.51503281  4.94880666  1
  Mo  Mo31  1  8.02570912  4.66371467  4.89281496  1
  Mo  Mo32  1  8.09990135  1.58155958  4.87589532  1
  Mo  Mo33  1  6.36998710  -0.17889940  6.46658991  1
  Mo  Mo34  1  13.05473514  6.64541782  6.33399314  1
  Mo  Mo35  1  2.99588875  -0.00812635  6.70665223  1
  Mo  Mo36  1  9.66218803  6.38722448  6.17207495  1
  Mo  Mo37  1  9.84587140  0.09858720  3.30479137  1
  Mo  Mo38  1  9.72710623  6.30822643  3.22681604  1
  Mo  Mo39  1  9.45235070  -0.35274574  6.48709406  1
  Mo  Mo40  1  3.20186354  0.05387387  3.08364450  1
  Mo  Mo41  1  1.13392383  1.53052263  7.87213159  1
  Mo  Mo42  1  5.72680239  4.52160556  12.09784200  1
  Mo  Mo43  1  1.29619949  4.59992841  7.56370558  1
  Mo  Mo44  1  7.72164210  1.71678763  11.12128871  1
  Mo  Mo45  1  4.64292257  1.53812852  8.00089563  1
  Mo  Mo46  1  4.73267412  4.77373206  7.93071486  1
  Mo  Mo47  1  8.09683318  4.59521196  7.89666706  1
  Mo  Mo48  1  6.20412694  3.40233747  9.57786784  1
  Mo  Mo49  1  7.71310284  1.53155528  8.02203525  1
  Mo  Mo50  1  7.94309678  3.82076102  11.96677435  1
  Mo  Mo51  1  12.44288752  2.99266170  9.36932133  1
  Mo  Mo52  1  10.98773872  1.27239879  7.96506054  1
  Mo  Mo53  1  10.91843174  4.79047297  7.86812013  1
  Mo  Mo54  1  9.45431672  3.24519530  9.50503593  1
  Mo  Mo55  1  11.13598418  4.65921666  10.93739683  1
  Mo  Mo56  1  11.11443745  1.44758262  11.18702113  1
  Mo  Mo57  1  2.78250664  3.20838714  9.42932450  1
  Mo  Mo58  1  4.57476739  1.71791958  11.37806216  1
  Mo  Mo59  1  3.01605529  3.08322746  12.90152500  1
  Mo  Mo60  1  0.97040999  4.47027073  11.01355508  1
  Mo  Mo61  1  6.30265606  0.12794784  9.41187860  1
  Mo  Mo62  1  1.49610744  1.68472570  11.30041450  1
  Mo  Mo63  1  3.50976330  5.83937163  9.79077334  1
  Mo  Mo64  1  3.25204657  0.12329097  12.53503205  1
  Mo  Mo65  1  0.02693887  6.33564142  9.43925387  1
  Mo  Mo66  1  9.42946351  6.07231459  9.86895717  1
  Mo  Mo67  1  3.01813053  0.14920563  9.75543472  1
  Mo  Mo68  1  12.79379137  0.04988028  9.38408630  1
  Mo  Mo69  1  0.00000000  6.41437137  0.00000000  1
  Mo  Mo70  1  1.60359284  8.01796421  1.60359284  1
  Mo  Mo71  1  0.00000000  9.62155706  0.00000000  1
  Mo  Mo72  1  1.60359284  11.22514990  1.60359284  1
  Mo  Mo73  1  3.20718569  6.41437137  0.00000000  1
  Mo  Mo74  1  3.20718569  9.62155706  0.00000000  1
  Mo  Mo75  1  3.27819059  9.72039398  3.02242995  1
  Mo  Mo76  1  -0.09233498  9.64580457  3.18513256  1
  Mo  Mo77  1  6.20625183  9.62561817  6.54321484  1
  Mo  Mo78  1  3.59983259  6.57940739  6.27627373  1
  Mo  Mo79  1  4.81077853  8.01796421  1.60359284  1
  Mo  Mo80  1  4.81077853  11.22514990  1.60359284  1
  Mo  Mo81  1  6.41437137  6.41437137  0.00000000  1
  Mo  Mo82  1  8.01796421  8.01796421  1.60359284  1
  Mo  Mo83  1  6.41437137  9.62155706  0.00000000  1
  Mo  Mo84  1  8.01796421  11.22514990  1.60359284  1
  Mo  Mo85  1  6.40806622  9.65638928  3.22663732  1
  Mo  Mo86  1  11.14938882  11.13439548  5.11553067  1
  Mo  Mo87  1  9.62155706  6.41437137  0.00000000  1
  Mo  Mo88  1  11.22514990  8.01796421  1.60359284  1
  Mo  Mo89  1  9.62155706  9.62155706  0.00000000  1
  Mo  Mo90  1  11.22514990  11.22514990  1.60359284  1
  Mo  Mo91  1  9.63520994  9.65283456  3.05040097  1
  Mo  Mo92  1  9.41912704  9.56738243  6.46130749  1
  Mo  Mo93  1  4.95306636  8.12538011  4.92439035  1
  Mo  Mo94  1  0.07707890  9.69324709  6.24395364  1
  Mo  Mo95  1  1.58058650  8.18794505  4.73956510  1
  Mo  Mo96  1  1.75673348  11.17302072  4.79726466  1
  Mo  Mo97  1  3.23126440  9.64057179  6.22443250  1
  Mo  Mo98  1  11.26903770  8.18871954  4.75037819  1
  Mo  Mo99  1  4.48725988  11.35939495  4.57680291  1
  Mo  Mo100  1  7.98372775  7.83447943  4.71654883  1
  Mo  Mo101  1  7.76283905  10.98088746  4.92516484  1
  Mo  Mo102  1  6.52452777  6.08842003  6.58833389  1
  Mo  Mo103  1  6.43893663  12.86309835  3.32104574  1
  Mo  Mo104  1  12.69380264  12.49928633  6.46699702  1
  Mo  Mo105  1  6.36304647  6.48676639  3.23061899  1
  Mo  Mo106  1  3.28952993  6.43541170  3.21684696  1
  Mo  Mo107  1  -0.00948040  6.47723420  3.16644549  1
  Mo  Mo108  1  1.93728909  8.01660389  7.87058261  1
  Mo  Mo109  1  1.50655313  11.14541708  7.96947911  1
  Mo  Mo110  1  3.20323380  9.94386432  9.60358490  1
  Mo  Mo111  1  10.96112802  7.40663292  11.78784715  1
  Mo  Mo112  1  0.17902749  9.07939373  9.37311435  1
  Mo  Mo113  1  4.75408184  11.70722069  11.04225095  1
  Mo  Mo114  1  4.63366840  11.22634142  7.98314192  1
  Mo  Mo115  1  8.02244236  8.12493329  8.04696790  1
  Mo  Mo116  1  7.61354108  11.06707437  8.04597496  1
  Mo  Mo117  1  6.38082004  9.01929127  10.05080361  1
  Mo  Mo118  1  4.67430930  7.64682432  8.41622121  1
  Mo  Mo119  1  8.62953381  8.12519145  11.53474757  1
  Mo  Mo120  1  7.75530266  10.80444260  11.15276481  1
  Mo  Mo121  1  9.58741989  12.30407496  9.48571338  1
  Mo  Mo122  1  11.41629022  10.99667515  8.03136886  1
  Mo  Mo123  1  9.65418496  9.42140087  9.62483375  1
  Mo  Mo124  1  11.27300945  7.81326037  8.15094823  1
  Mo  Mo125  1  1.41234330  11.75855552  11.16468005  1
  Mo  Mo126  1  1.87471422  8.08676480  10.77822907  1
  Mo  Mo127  1  6.84437256  6.23520586  9.87759572  1
