# generated using pymatgen
data_Mo
_symmetry_space_group_name_H-M   'P 1'
_cell_length_a   12.82874274
_cell_length_b   12.82874274
_cell_length_c   29.78810234
_cell_angle_alpha   90.00000000
_cell_angle_beta   90.00000000
_cell_angle_gamma   90.00000000
_symmetry_Int_Tables_number   1
_chemical_formula_structural   Mo
_chemical_formula_sum   Mo128
_cell_volume   4902.42580387
_cell_formula_units_Z   128
loop_
 _symmetry_equiv_pos_site_id
 _symmetry_equiv_pos_as_xyz
  1  'x, y, z'
loop_
 _atom_site_type_symbol
 _atom_site_label
 _atom_site_symmetry_multiplicity
 _atom_site_fract_x
 _atom_site_fract_y
 _atom_site_fract_z
 _atom_site_occupancy
  Mo  Mo0  1  0.00000000  0.00000000  0.00000000  1
  Mo  Mo1  1  1.60359284  1.60359284  1.60359284  1
  Mo  Mo2  1  0.00000000  3.20718569  0.00000000  1
  Mo  Mo3  1  1.60359284  4.81077853  1.60359284  1
  Mo  Mo4  1  3.20718569  0.00000000  0.00000000  1
  Mo  Mo5  1  3.20718569  3.20718569  0.00000000  1
  Mo  Mo6  1  2.99690154  2.99913565  3.30358991  1
  Mo  Mo7  1  -0.02961722  3.05636852  3.32157200  1
  Mo  Mo8  1  11.26685324  1.73335975  4.92042853  1
  Mo  Mo9  1  3.06666528  6.40512713  3.42173946  1
  Mo  Mo10  1  4.81077853  1.60359284  1.60359284  1
  Mo  Mo11  1  4.81077853  4.81077853  1.60359284  1
  Mo  Mo12  1  6.41437137  0.00000000  0.00000000  1
  Mo  Mo13  1  8.01796421  1.60359284  1.60359284  1
  Mo  Mo14  1  6.41437137  3.20718569  0.00000000  1
  Mo  Mo15  1  8.01796421  4.81077853  1.60359284  1
  Mo  Mo16  1  6.20486172  3.00479539  3.29565635  1
  Mo  Mo17  1  12.73391728  3.37676935  6.49585176  1
  Mo  Mo18  1  11.75458377  4.88413669  4.61628208  1
  Mo  Mo19  1  9.62155706  0.00000000  0.00000000  1
  Mo  Mo20  1  11.22514990  1.60359284  1.60359284  1
  Mo  Mo21  1  9.62155706  3.20718569  0.00000000  1
  Mo  Mo22  1  11.22514990  4.81077853  1.60359284  1
  Mo  Mo23  1  9.36266866  3.20434589  3.29958838  1
  Mo  Mo24  1  9.57061940  3.26584839  6.10389991  1
  Mo  Mo25  1  4.78367135  4.89818675  4.97789971  1
  Mo  Mo26  1  1.61896350  1.46142416  4.86442690  1
  Mo  Mo27  1  1.49389319  4.91588088  4.91948524  1
  Mo  Mo28  1  3.31776905  2.88710260  6.50229592  1
  Mo  Mo29  1  4.82511653  1.39787621  4.83016065  1
  Mo  Mo30  1  7.95219208  1.48768734  4.82982305  1
  Mo  Mo31  1  6.59397377  2.78576347  6.34171819  1
  Mo  Mo32  1  7.79261722  4.85064494  4.78895378  1
  Mo  Mo33  1  6.23522572  6.34779496  6.56173311  1
  Mo  Mo34  1  12.52232246  0.10033626  6.48897071  1
  Mo  Mo35  1  6.09185559  6.35047589  3.32565297  1
  Mo  Mo36  1  9.65285442  0.07546855  3.08515376  1
  Mo  Mo37  1  9.68447946  0.00977976  6.48549543  1
  Mo  Mo38  1  1.48224604  1.58759663  7.94405000  1
  Mo  Mo39  1  1.61797057  4.57887815  8.17862138  1
  Mo  Mo40  1  3.21214044  3.54718709  10.18216914  1
  Mo  Mo41  1  1.13564161  4.43695770  11.26129280  1
  Mo  Mo42  1  4.95899420  4.64462049  11.66154560  1
  Mo  Mo43  1  10.59046473  1.82505745  11.67495024  1
  Mo  Mo44  1  4.77966982  1.48556245  8.08357747  1
  Mo  Mo45  1  4.96635186  4.76358424  8.14098908  1
  Mo  Mo46  1  8.06181230  4.67938321  8.02892623  1
  Mo  Mo47  1  6.43038744  3.68192860  10.03769685  1
  Mo  Mo48  1  7.94857779  1.53611286  8.16067901  1
  Mo  Mo49  1  11.45153948  4.46182084  11.39851665  1
  Mo  Mo50  1  0.16477487  3.04344049  9.63122826  1
  Mo  Mo51  1  11.28651339  1.82691425  7.96726486  1
  Mo  Mo52  1  11.52710196  5.00190892  8.16098682  1
  Mo  Mo53  1  9.62113009  3.35341548  9.79421883  1
  Mo  Mo54  1  7.95296657  1.55395593  11.13509054  1
  Mo  Mo55  1  1.70373051  1.51027665  11.08176983  1
  Mo  Mo56  1  5.66693824  1.84693185  13.50552843  1
  Mo  Mo57  1  3.58486903  0.42976586  13.00826570  1
  Mo  Mo58  1  2.95767061  2.89547305  13.31885632  1
  Mo  Mo59  1  8.42011352  5.08876110  11.29942157  1
  Mo  Mo60  1  4.68306700  1.87934131  11.32642945  1
  Mo  Mo61  1  3.18735674  0.19963192  9.54196325  1
  Mo  Mo62  1  -0.04951210  0.07682997  9.80570710  1
  Mo  Mo63  1  2.97607966  6.27675034  9.63963843  1
  Mo  Mo64  1  9.70590703  6.46136707  9.75909865  1
  Mo  Mo65  1  6.37446524  0.20490143  9.67611893  1
  Mo  Mo66  1  10.00344053  0.06640691  9.77987089  1
  Mo  Mo67  1  0.00000000  6.41437137  0.00000000  1
  Mo  Mo68  1  1.60359284  8.01796421  1.60359284  1
  Mo  Mo69  1  0.00000000  9.62155706  0.00000000  1
  Mo  Mo70  1  1.60359284  11.22514990  1.60359284  1
  Mo  Mo71  1  3.20718569  6.41437137  0.00000000  1
  Mo  Mo72  1  3.20718569  9.62155706  0.00000000  1
  Mo  Mo73  1  3.09081350  9.70680067  2.93303585  1
  Mo  Mo74  1  10.97195103  7.99338903  4.99222779  1
  Mo  Mo75  1  4.81077853  8.01796421  1.60359284  1
  Mo  Mo76  1  4.81077853  11.22514990  1.60359284  1
  Mo  Mo77  1  6.41437137  6.41437137  0.00000000  1
  Mo  Mo78  1  8.01796421  8.01796421  1.60359284  1
  Mo  Mo79  1  6.41437137  9.62155706  0.00000000  1
  Mo  Mo80  1  8.01796421  11.22514990  1.60359284  1
  Mo  Mo81  1  6.35526185  9.43655308  3.21175319  1
  Mo  Mo82  1  12.72776107  9.66728179  3.29629183  1
  Mo  Mo83  1  9.62155706  6.41437137  0.00000000  1
  Mo  Mo84  1  11.22514990  8.01796421  1.60359284  1
  Mo  Mo85  1  9.62155706  9.62155706  0.00000000  1
  Mo  Mo86  1  11.22514990  11.22514990  1.60359284  1
  Mo  Mo87  1  9.63373046  9.57814586  3.37309549  1
  Mo  Mo88  1  11.09706106  11.52759843  4.59181612  1
  Mo  Mo89  1  1.51046531  8.04670973  4.68622454  1
  Mo  Mo90  1  1.51317602  11.22445484  4.81262539  1
  Mo  Mo91  1  3.29606345  9.66268450  6.39250690  1
  Mo  Mo92  1  9.58548366  9.72544803  6.60067609  1
  Mo  Mo93  1  6.39443320  9.44151776  6.55273711  1
  Mo  Mo94  1  4.73432240  7.97832618  4.63973524  1
  Mo  Mo95  1  7.95438647  8.07237715  4.90084782  1
  Mo  Mo96  1  4.67489513  11.33784822  4.69983771  1
  Mo  Mo97  1  7.82120387  11.05754218  5.05209194  1
  Mo  Mo98  1  12.63601372  9.62579690  6.22171185  1
  Mo  Mo99  1  3.06774758  6.38801883  6.31380674  1
  Mo  Mo100  1  6.48414504  12.61069383  6.56316294  1
  Mo  Mo101  1  3.26920451  12.84731066  3.32603028  1
  Mo  Mo102  1  12.84840289  12.89616315  3.24016111  1
  Mo  Mo103  1  12.84264385  6.51601830  6.43520318  1
  Mo  Mo104  1  9.30595211  6.52426961  3.10817996  1
  Mo  Mo105  1  -0.07347216  6.59351702  3.26517319  1
  Mo  Mo106  1  6.31506777  12.60265104  3.06426237  1
  Mo  Mo107  1  9.52633442  6.53602598  6.31819552  1
  Mo  Mo108  1  3.36441722  12.51993941  6.54560782  1
  Mo  Mo109  1  2.90239382  9.55218057  9.77494592  1
  Mo  Mo110  1  1.66620743  8.19926453  7.93514336  1
  Mo  Mo111  1  1.31726960  11.32831603  7.66012967  1
  Mo  Mo112  1  1.41658314  8.15838533  11.46623494  1
  Mo  Mo113  1  0.03227849  9.89002729  9.94009116  1
  Mo  Mo114  1  9.79644300  9.40095630  9.89794100  1
  Mo  Mo115  1  8.26311037  7.78533899  11.26258361  1
  Mo  Mo116  1  8.01186758  11.13032444  11.52581114  1
  Mo  Mo117  1  4.96517026  10.90790661  8.00218645  1
  Mo  Mo118  1  8.20421929  8.10743774  8.23470245  1
  Mo  Mo119  1  8.08806555  11.15226834  8.36310903  1
  Mo  Mo120  1  6.24224579  9.59458889  10.27361862  1
  Mo  Mo121  1  4.65708185  7.99539476  8.14778076  1
  Mo  Mo122  1  1.66400311  11.39097033  10.93233285  1
  Mo  Mo123  1  11.16021183  11.16458076  8.09943467  1
  Mo  Mo124  1  11.58667817  7.86785204  11.09547236  1
  Mo  Mo125  1  11.23448350  8.16848349  8.22122829  1
  Mo  Mo126  1  0.11436943  6.55642090  9.82655878  1
  Mo  Mo127  1  6.12414589  6.63715659  9.79146839  1
