# generated using pymatgen
data_Mo
_symmetry_space_group_name_H-M   'P 1'
_cell_length_a   12.82874274
_cell_length_b   12.82874274
_cell_length_c   29.78810234
_cell_angle_alpha   90.00000000
_cell_angle_beta   90.00000000
_cell_angle_gamma   90.00000000
_symmetry_Int_Tables_number   1
_chemical_formula_structural   Mo
_chemical_formula_sum   Mo128
_cell_volume   4902.42580387
_cell_formula_units_Z   128
loop_
 _symmetry_equiv_pos_site_id
 _symmetry_equiv_pos_as_xyz
  1  'x, y, z'
loop_
 _atom_site_type_symbol
 _atom_site_label
 _atom_site_symmetry_multiplicity
 _atom_site_fract_x
 _atom_site_fract_y
 _atom_site_fract_z
 _atom_site_occupancy
  Mo  Mo0  1  0.00000000  0.00000000  0.00000000  1
  Mo  Mo1  1  1.60359284  1.60359284  1.60359284  1
  Mo  Mo2  1  0.00000000  3.20718569  0.00000000  1
  Mo  Mo3  1  1.60359284  4.81077853  1.60359284  1
  Mo  Mo4  1  3.20718569  0.00000000  0.00000000  1
  Mo  Mo5  1  3.20718569  3.20718569  0.00000000  1
  Mo  Mo6  1  3.24575135  3.23076793  3.00938276  1
  Mo  Mo7  1  0.19380537  3.29658971  6.17999858  1
  Mo  Mo8  1  11.41748175  1.75873921  4.68592666  1
  Mo  Mo9  1  4.81077853  1.60359284  1.60359284  1
  Mo  Mo10  1  4.81077853  4.81077853  1.60359284  1
  Mo  Mo11  1  6.41437137  0.00000000  0.00000000  1
  Mo  Mo12  1  8.01796421  1.60359284  1.60359284  1
  Mo  Mo13  1  6.41437137  3.20718569  0.00000000  1
  Mo  Mo14  1  8.01796421  4.81077853  1.60359284  1
  Mo  Mo15  1  6.27462545  3.16903706  3.33780651  1
  Mo  Mo16  1  12.79081256  3.27827996  3.06794617  1
  Mo  Mo17  1  9.62155706  0.00000000  0.00000000  1
  Mo  Mo18  1  11.22514990  1.60359284  1.60359284  1
  Mo  Mo19  1  9.62155706  3.20718569  0.00000000  1
  Mo  Mo20  1  11.22514990  4.81077853  1.60359284  1
  Mo  Mo21  1  9.59129234  3.09801229  3.19334415  1
  Mo  Mo22  1  9.61851867  3.49287345  6.22369773  1
  Mo  Mo23  1  11.27866919  4.73478908  4.76616588  1
  Mo  Mo24  1  1.78853724  1.94325664  4.61910202  1
  Mo  Mo25  1  1.66372509  5.13223187  4.82559314  1
  Mo  Mo26  1  3.39241803  3.28121905  6.46469340  1
  Mo  Mo27  1  3.15617852  0.12432164  6.34308844  1
  Mo  Mo28  1  4.79893279  4.75444923  4.75444923  1
  Mo  Mo29  1  7.96909187  1.57584026  5.13500216  1
  Mo  Mo30  1  4.67634482  1.82613976  4.84076522  1
  Mo  Mo31  1  8.06780964  4.98688579  4.54632968  1
  Mo  Mo32  1  6.33077603  3.35986957  6.58155213  1
  Mo  Mo33  1  9.77163944  6.32802559  2.88421315  1
  Mo  Mo34  1  6.19781187  0.26134889  3.37163587  1
  Mo  Mo35  1  0.31350687  0.32176115  6.15492693  1
  Mo  Mo36  1  9.81469318  0.00588606  6.37798024  1
  Mo  Mo37  1  3.38770159  0.11057840  3.14391576  1
  Mo  Mo38  1  1.79735452  1.66182858  7.86259940  1
  Mo  Mo39  1  1.47009250  5.07454224  7.79993516  1
  Mo  Mo40  1  2.98103441  3.14197953  9.54689814  1
  Mo  Mo41  1  1.40438987  5.29197553  10.53287440  1
  Mo  Mo42  1  8.03463562  4.99436260  7.54921863  1
  Mo  Mo43  1  4.74755825  1.56658609  8.13175476  1
  Mo  Mo44  1  4.82050931  5.02302869  7.99013220  1
  Mo  Mo45  1  6.55006611  3.55192339  9.61159790  1
  Mo  Mo46  1  8.05290566  1.34766340  8.15450294  1
  Mo  Mo47  1  8.21333445  5.32841631  11.16507722  1
  Mo  Mo48  1  4.70856562  4.58660320  10.77505167  1
  Mo  Mo49  1  11.50148419  2.31722641  11.11294805  1
  Mo  Mo50  1  12.79299702  3.47244874  9.16073511  1
  Mo  Mo51  1  9.88720735  5.91260072  13.13685101  1
  Mo  Mo52  1  9.27005745  3.45965971  9.52412017  1
  Mo  Mo53  1  11.24044112  1.76437909  7.83220561  1
  Mo  Mo54  1  11.48599438  4.95432739  7.61115803  1
  Mo  Mo55  1  10.84763535  4.83210681  11.11711838  1
  Mo  Mo56  1  12.76837219  0.28782555  9.16755659  1
  Mo  Mo57  1  12.53036525  4.10193092  12.71395925  1
  Mo  Mo58  1  1.08248971  1.98746219  10.99548363  1
  Mo  Mo59  1  4.66882829  2.16372832  11.09328790  1
  Mo  Mo60  1  3.08868861  0.35760815  9.67570190  1
  Mo  Mo61  1  6.78155938  6.35378237  12.73451304  1
  Mo  Mo62  1  9.75946604  6.36802108  8.91096187  1
  Mo  Mo63  1  0.00000000  6.41437137  0.00000000  1
  Mo  Mo64  1  1.60359284  8.01796421  1.60359284  1
  Mo  Mo65  1  0.00000000  9.62155706  0.00000000  1
  Mo  Mo66  1  1.60359284  11.22514990  1.60359284  1
  Mo  Mo67  1  3.20718569  6.41437137  0.00000000  1
  Mo  Mo68  1  3.20718569  9.62155706  0.00000000  1
  Mo  Mo69  1  3.29471306  9.60465727  3.06391484  1
  Mo  Mo70  1  0.01210628  9.66954569  3.06181975  1
  Mo  Mo71  1  0.07597078  9.92085798  6.16483644  1
  Mo  Mo72  1  6.37506100  6.85587076  6.45515128  1
  Mo  Mo73  1  4.81077853  8.01796421  1.60359284  1
  Mo  Mo74  1  4.81077853  11.22514990  1.60359284  1
  Mo  Mo75  1  6.41437137  6.41437137  0.00000000  1
  Mo  Mo76  1  8.01796421  8.01796421  1.60359284  1
  Mo  Mo77  1  6.41437137  9.62155706  0.00000000  1
  Mo  Mo78  1  8.01796421  11.22514990  1.60359284  1
  Mo  Mo79  1  6.57049081  9.76344772  3.31668675  1
  Mo  Mo80  1  11.44220587  11.61527474  4.80634010  1
  Mo  Mo81  1  11.12605481  8.38571819  4.73837358  1
  Mo  Mo82  1  9.62155706  6.41437137  0.00000000  1
  Mo  Mo83  1  11.22514990  8.01796421  1.60359284  1
  Mo  Mo84  1  9.62155706  9.62155706  0.00000000  1
  Mo  Mo85  1  11.22514990  11.22514990  1.60359284  1
  Mo  Mo86  1  9.51612703  9.55324301  2.98436075  1
  Mo  Mo87  1  1.73740100  8.04777217  4.60294694  1
  Mo  Mo88  1  1.73132423  11.34489807  4.76748649  1
  Mo  Mo89  1  3.18968021  9.94306997  6.28134763  1
  Mo  Mo90  1  9.39299295  9.84785727  6.29513953  1
  Mo  Mo91  1  8.01779541  11.16348853  4.70006608  1
  Mo  Mo92  1  4.69657094  11.41122624  5.02306840  1
  Mo  Mo93  1  8.12732627  8.11115133  4.49706016  1
  Mo  Mo94  1  6.11829749  9.73805832  6.49167150  1
  Mo  Mo95  1  4.67697037  8.16275425  4.71524808  1
  Mo  Mo96  1  12.76380468  6.60578972  3.04172271  1
  Mo  Mo97  1  9.48729215  6.53626429  6.08166806  1
  Mo  Mo98  1  3.13171256  6.42703131  3.25210614  1
  Mo  Mo99  1  6.35928324  6.44012815  2.95922952  1
  Mo  Mo100  1  3.11211199  6.69023899  6.41660548  1
  Mo  Mo101  1  9.53533043  12.83172155  3.30285514  1
  Mo  Mo102  1  0.19479830  12.71227126  3.11531918  1
  Mo  Mo103  1  6.14257480  12.67622766  6.77721032  1
  Mo  Mo104  1  0.11921199  6.78978089  6.23292211  1
  Mo  Mo105  1  2.87140427  9.99301469  9.90421636  1
  Mo  Mo106  1  1.65141268  8.11208469  7.97669776  1
  Mo  Mo107  1  1.40193732  11.35929565  7.99979347  1
  Mo  Mo108  1  2.31332417  8.02517293  11.53206665  1
  Mo  Mo109  1  1.38633828  12.11909085  11.02378233  1
  Mo  Mo110  1  6.29147559  12.78098248  9.64799896  1
  Mo  Mo111  1  5.18960375  8.39341345  11.10659325  1
  Mo  Mo112  1  7.98883145  7.85061465  11.32047183  1
  Mo  Mo113  1  4.68436775  8.26648635  7.95911285  1
  Mo  Mo114  1  4.83244441  11.31421632  8.17259425  1
  Mo  Mo115  1  8.41529778  11.22445484  8.17756887  1
  Mo  Mo116  1  6.35332562  9.79710827  9.36073243  1
  Mo  Mo117  1  7.85440767  8.15029289  7.84238321  1
  Mo  Mo118  1  8.00665466  11.14353050  10.95953932  1
  Mo  Mo119  1  12.60314751  9.56119643  9.65481051  1
  Mo  Mo120  1  9.68264252  9.58440136  9.52679117  1
  Mo  Mo121  1  10.40240251  7.36693531  11.51846341  1
  Mo  Mo122  1  11.27271157  8.33839483  7.88493055  1
  Mo  Mo123  1  11.26933558  10.89966523  8.16126484  1
  Mo  Mo124  1  12.62429706  6.68193803  9.50944457  1
  Mo  Mo125  1  3.33328865  6.59332836  9.53058419  1
  Mo  Mo126  1  9.56759094  12.73530739  9.79783312  1
  Mo  Mo127  1  6.33514495  6.55884367  9.84055918  1
