# generated using pymatgen
data_Mo
_symmetry_space_group_name_H-M   'P 1'
_cell_length_a   12.82874274
_cell_length_b   12.82874274
_cell_length_c   29.78810234
_cell_angle_alpha   90.00000000
_cell_angle_beta   90.00000000
_cell_angle_gamma   90.00000000
_symmetry_Int_Tables_number   1
_chemical_formula_structural   Mo
_chemical_formula_sum   Mo128
_cell_volume   4902.42580387
_cell_formula_units_Z   128
loop_
 _symmetry_equiv_pos_site_id
 _symmetry_equiv_pos_as_xyz
  1  'x, y, z'
loop_
 _atom_site_type_symbol
 _atom_site_label
 _atom_site_symmetry_multiplicity
 _atom_site_fract_x
 _atom_site_fract_y
 _atom_site_fract_z
 _atom_site_occupancy
  Mo  Mo0  1  0.00000000  0.00000000  0.00000000  1
  Mo  Mo1  1  1.60359284  1.60359284  1.60359284  1
  Mo  Mo2  1  0.00000000  3.20718569  0.00000000  1
  Mo  Mo3  1  1.60359284  4.81077853  1.60359284  1
  Mo  Mo4  1  3.20718569  0.00000000  0.00000000  1
  Mo  Mo5  1  3.20718569  3.20718569  0.00000000  1
  Mo  Mo6  1  3.00959127  3.13374808  3.10525080  1
  Mo  Mo7  1  0.09342681  3.12013492  3.31191072  1
  Mo  Mo8  1  11.18136139  1.44733439  4.66997017  1
  Mo  Mo9  1  3.17352513  6.08354471  6.38616204  1
  Mo  Mo10  1  4.81077853  1.60359284  1.60359284  1
  Mo  Mo11  1  4.81077853  4.81077853  1.60359284  1
  Mo  Mo12  1  6.41437137  0.00000000  0.00000000  1
  Mo  Mo13  1  8.01796421  1.60359284  1.60359284  1
  Mo  Mo14  1  6.41437137  3.20718569  0.00000000  1
  Mo  Mo15  1  8.01796421  4.81077853  1.60359284  1
  Mo  Mo16  1  6.36335428  3.27153792  3.13234804  1
  Mo  Mo17  1  8.28725859  1.60457585  4.99082775  1
  Mo  Mo18  1  9.62155706  0.00000000  0.00000000  1
  Mo  Mo19  1  11.22514990  1.60359284  1.60359284  1
  Mo  Mo20  1  9.62155706  3.20718569  0.00000000  1
  Mo  Mo21  1  11.22514990  4.81077853  1.60359284  1
  Mo  Mo22  1  9.61461643  3.24953444  3.30905107  1
  Mo  Mo23  1  4.78248976  1.29766903  4.97575497  1
  Mo  Mo24  1  -0.19587564  2.90671310  6.56831628  1
  Mo  Mo25  1  1.43758375  1.51886555  4.67195604  1
  Mo  Mo26  1  1.61381016  4.59965039  4.75863942  1
  Mo  Mo27  1  3.08793398  3.27566853  6.50830319  1
  Mo  Mo28  1  11.54080449  4.79972714  4.84984066  1
  Mo  Mo29  1  4.92553223  4.77772366  4.79018502  1
  Mo  Mo30  1  9.73857465  3.22669689  6.36900409  1
  Mo  Mo31  1  8.15309297  4.96735472  5.15983551  1
  Mo  Mo32  1  6.53893528  3.49622957  6.34051674  1
  Mo  Mo33  1  6.35007872  6.43172790  6.66981428  1
  Mo  Mo34  1  0.19355812  6.35495404  6.44722765  1
  Mo  Mo35  1  9.69104277  6.00667154  3.42857086  1
  Mo  Mo36  1  9.77176853  6.49361765  6.51546226  1
  Mo  Mo37  1  0.07129465  6.32694329  3.02924149  1
  Mo  Mo38  1  9.71745489  -0.01679473  3.05602100  1
  Mo  Mo39  1  2.98856087  6.13645830  3.24514566  1
  Mo  Mo40  1  1.48433121  1.32025834  7.92111316  1
  Mo  Mo41  1  1.80643989  4.80477126  8.19871842  1
  Mo  Mo42  1  3.22764018  2.80525482  9.37547754  1
  Mo  Mo43  1  2.23845674  4.32284941  10.89549490  1
  Mo  Mo44  1  1.40756727  1.52334369  10.87176371  1
  Mo  Mo45  1  12.81921055  3.00142933  9.56936830  1
  Mo  Mo46  1  5.67814849  1.72196083  11.35115357  1
  Mo  Mo47  1  11.43624825  1.69449620  11.18364514  1
  Mo  Mo48  1  6.89580668  3.32336921  12.80947977  1
  Mo  Mo49  1  6.56115721  3.12312366  9.52674153  1
  Mo  Mo50  1  4.76804253  1.58124184  7.75314798  1
  Mo  Mo51  1  4.87438606  4.72933786  8.31437569  1
  Mo  Mo52  1  7.80703466  1.53882358  7.96737409  1
  Mo  Mo53  1  8.05775119  4.72834492  11.32523792  1
  Mo  Mo54  1  5.01572067  4.35976680  11.30786153  1
  Mo  Mo55  1  11.12357247  4.93892694  11.35711119  1
  Mo  Mo56  1  8.11008888  4.66462817  8.19370409  1
  Mo  Mo57  1  9.83792790  3.00128039  9.57331026  1
  Mo  Mo58  1  11.05386831  1.45378848  8.16392591  1
  Mo  Mo59  1  11.10450808  4.65826344  8.03883574  1
  Mo  Mo60  1  8.46819152  1.67230407  11.31818807  1
  Mo  Mo61  1  3.45314605  6.57898042  9.84366708  1
  Mo  Mo62  1  8.88773708  5.97179960  13.11361629  1
  Mo  Mo63  1  13.03100396  6.43677202  9.39966548  1
  Mo  Mo64  1  6.57138446  6.29022449  9.96352447  1
  Mo  Mo65  1  9.67993181  0.01044113  9.57892035  1
  Mo  Mo66  1  0.00000000  6.41437137  0.00000000  1
  Mo  Mo67  1  1.60359284  8.01796421  1.60359284  1
  Mo  Mo68  1  0.00000000  9.62155706  0.00000000  1
  Mo  Mo69  1  1.60359284  11.22514990  1.60359284  1
  Mo  Mo70  1  3.20718569  6.41437137  0.00000000  1
  Mo  Mo71  1  3.20718569  9.62155706  0.00000000  1
  Mo  Mo72  1  3.68299104  9.65740207  3.23635817  1
  Mo  Mo73  1  12.76469832  9.53026645  3.16604832  1
  Mo  Mo74  1  11.02914418  8.04833815  4.58647412  1
  Mo  Mo75  1  8.14323311  11.26059774  4.77379163  1
  Mo  Mo76  1  4.81077853  8.01796421  1.60359284  1
  Mo  Mo77  1  4.81077853  11.22514990  1.60359284  1
  Mo  Mo78  1  6.41437137  6.41437137  0.00000000  1
  Mo  Mo79  1  8.01796421  8.01796421  1.60359284  1
  Mo  Mo80  1  6.41437137  9.62155706  0.00000000  1
  Mo  Mo81  1  8.01796421  11.22514990  1.60359284  1
  Mo  Mo82  1  6.73295512  9.53750496  2.83714795  1
  Mo  Mo83  1  5.25934763  11.04383965  4.94037663  1
  Mo  Mo84  1  9.62155706  6.41437137  0.00000000  1
  Mo  Mo85  1  11.22514990  8.01796421  1.60359284  1
  Mo  Mo86  1  9.62155706  9.62155706  0.00000000  1
  Mo  Mo87  1  11.22514990  11.22514990  1.60359284  1
  Mo  Mo88  1  9.52763517  9.80009701  3.10783243  1
  Mo  Mo89  1  11.43446096  11.19695049  4.70696699  1
  Mo  Mo90  1  0.10517881  9.54500163  6.18891515  1
  Mo  Mo91  1  1.69649200  7.90311122  4.81642834  1
  Mo  Mo92  1  1.77985897  10.98952601  4.75501520  1
  Mo  Mo93  1  3.34857988  9.36566733  6.45046462  1
  Mo  Mo94  1  6.66629928  12.44894444  6.64275675  1
  Mo  Mo95  1  9.68040842  9.57384644  6.16408181  1
  Mo  Mo96  1  8.04168547  7.91563215  4.79973707  1
  Mo  Mo97  1  4.79631144  7.82659551  4.69654116  1
  Mo  Mo98  1  6.41084644  9.36463467  6.43160875  1
  Mo  Mo99  1  9.41434109  12.61456628  6.09361308  1
  Mo  Mo100  1  0.10442914  12.66163149  6.49384603  1
  Mo  Mo101  1  6.66618013  12.73709468  3.21955768  1
  Mo  Mo102  1  -0.12260386  12.80272780  3.07936494  1
  Mo  Mo103  1  6.33060723  6.58628844  3.00137969  1
  Mo  Mo104  1  3.44933317  12.64812755  3.13775955  1
  Mo  Mo105  1  3.11820862  12.66937639  6.15357653  1
  Mo  Mo106  1  3.42897797  9.47159382  9.91814726  1
  Mo  Mo107  1  1.67055650  7.98707395  8.43234650  1
  Mo  Mo108  1  1.94685108  10.79600264  7.94089246  1
  Mo  Mo109  1  12.76310962  9.38472178  9.54751376  1
  Mo  Mo110  1  1.91583173  10.94116999  11.62470764  1
  Mo  Mo111  1  3.49890057  12.64068052  9.45454509  1
  Mo  Mo112  1  6.67228669  9.48087778  9.98288674  1
  Mo  Mo113  1  4.79168435  7.72534575  8.19248278  1
  Mo  Mo114  1  4.92016044  11.33119554  8.06082929  1
  Mo  Mo115  1  8.21113013  11.08137266  8.23798907  1
  Mo  Mo116  1  8.26072732  8.15412563  8.05670860  1
  Mo  Mo117  1  8.06550602  10.74536286  11.38898446  1
  Mo  Mo118  1  4.68743593  11.51131427  11.38491342  1
  Mo  Mo119  1  8.07645812  7.83367515  11.21988733  1
  Mo  Mo120  1  11.22058239  8.02823118  7.88029353  1
  Mo  Mo121  1  11.11999790  11.36088435  7.97379839  1
  Mo  Mo122  1  10.21483676  9.94912689  9.70230267  1
  Mo  Mo123  1  11.54269107  7.32457663  11.54805293  1
  Mo  Mo124  1  1.69903392  8.17288220  11.05476195  1
  Mo  Mo125  1  -0.20232873  12.10955866  9.54475340  1
  Mo  Mo126  1  9.66939675  6.41159115  9.44388095  1
  Mo  Mo127  1  6.97320610  12.89129776  9.93383566  1
