# generated using pymatgen
data_Mo
_symmetry_space_group_name_H-M   'P 1'
_cell_length_a   12.82874274
_cell_length_b   12.82874274
_cell_length_c   29.78810234
_cell_angle_alpha   90.00000000
_cell_angle_beta   90.00000000
_cell_angle_gamma   90.00000000
_symmetry_Int_Tables_number   1
_chemical_formula_structural   Mo
_chemical_formula_sum   Mo128
_cell_volume   4902.42580387
_cell_formula_units_Z   128
loop_
 _symmetry_equiv_pos_site_id
 _symmetry_equiv_pos_as_xyz
  1  'x, y, z'
loop_
 _atom_site_type_symbol
 _atom_site_label
 _atom_site_symmetry_multiplicity
 _atom_site_fract_x
 _atom_site_fract_y
 _atom_site_fract_z
 _atom_site_occupancy
  Mo  Mo0  1  0.00000000  0.00000000  0.00000000  1
  Mo  Mo1  1  1.60359284  1.60359284  1.60359284  1
  Mo  Mo2  1  0.00000000  3.20718569  0.00000000  1
  Mo  Mo3  1  1.60359284  4.81077853  1.60359284  1
  Mo  Mo4  1  3.20718569  0.00000000  0.00000000  1
  Mo  Mo5  1  3.20718569  3.20718569  0.00000000  1
  Mo  Mo6  1  3.14318098  3.14927761  2.97919748  1
  Mo  Mo7  1  4.76545097  1.50161824  4.65631729  1
  Mo  Mo8  1  4.81077853  1.60359284  1.60359284  1
  Mo  Mo9  1  4.81077853  4.81077853  1.60359284  1
  Mo  Mo10  1  6.41437137  0.00000000  0.00000000  1
  Mo  Mo11  1  8.01796421  1.60359284  1.60359284  1
  Mo  Mo12  1  6.41437137  3.20718569  0.00000000  1
  Mo  Mo13  1  8.01796421  4.81077853  1.60359284  1
  Mo  Mo14  1  6.16499531  2.83454645  3.29143637  1
  Mo  Mo15  1  7.86215258  4.85653305  4.65487753  1
  Mo  Mo16  1  10.99200835  4.85355424  4.92845146  1
  Mo  Mo17  1  0.12777606  3.15520545  3.03631120  1
  Mo  Mo18  1  9.62155706  0.00000000  0.00000000  1
  Mo  Mo19  1  11.22514990  1.60359284  1.60359284  1
  Mo  Mo20  1  9.62155706  3.20718569  0.00000000  1
  Mo  Mo21  1  11.22514990  4.81077853  1.60359284  1
  Mo  Mo22  1  9.37519952  3.22843453  3.05019246  1
  Mo  Mo23  1  9.45532951  2.94403759  6.49233676  1
  Mo  Mo24  1  12.82516817  3.30063096  6.37760292  1
  Mo  Mo25  1  1.70969806  1.59659264  4.77362283  1
  Mo  Mo26  1  1.82623905  4.81360840  4.89915983  1
  Mo  Mo27  1  3.22634936  3.20692752  6.35833002  1
  Mo  Mo28  1  11.04304530  1.70261842  4.84087444  1
  Mo  Mo29  1  7.91753859  1.50226365  4.76141964  1
  Mo  Mo30  1  4.94873716  4.74778662  4.80058107  1
  Mo  Mo31  1  6.69322773  3.43387314  6.65346061  1
  Mo  Mo32  1  3.45128925  6.51089475  3.12137609  1
  Mo  Mo33  1  3.13292395  6.42621711  6.27575740  1
  Mo  Mo34  1  12.58229584  6.27731631  6.74468171  1
  Mo  Mo35  1  9.27766334  6.37484256  6.33011076  1
  Mo  Mo36  1  12.39343927  0.10083471  6.21107750  1
  Mo  Mo37  1  3.06675464  -0.12799848  6.48044138  1
  Mo  Mo38  1  1.16898443  1.38240625  7.66909589  1
  Mo  Mo39  1  1.80473204  4.70493147  7.92907652  1
  Mo  Mo40  1  3.33472841  2.88492806  9.34512347  1
  Mo  Mo41  1  2.21540075  5.01954348  11.87889945  1
  Mo  Mo42  1  1.96892406  1.33268991  11.13181384  1
  Mo  Mo43  1  10.48213533  4.90572314  10.94414880  1
  Mo  Mo44  1  11.31213116  1.82962496  11.06022310  1
  Mo  Mo45  1  6.20190277  3.14807616  9.72334300  1
  Mo  Mo46  1  5.06939883  4.64482901  7.91871026  1
  Mo  Mo47  1  7.98816618  1.29305188  7.79958763  1
  Mo  Mo48  1  8.44222623  5.37479639  8.40216123  1
  Mo  Mo49  1  4.91386522  1.55406516  7.83670361  1
  Mo  Mo50  1  7.84115197  4.77763430  10.99141259  1
  Mo  Mo51  1  7.66670291  1.44382932  10.95090077  1
  Mo  Mo52  1  4.60437677  4.24821036  11.19059570  1
  Mo  Mo53  1  4.47860147  1.06381257  11.97273197  1
  Mo  Mo54  1  13.11510570  3.34523368  9.71336399  1
  Mo  Mo55  1  9.25727835  2.97987268  9.41256373  1
  Mo  Mo56  1  11.20360317  1.50065509  7.94108112  1
  Mo  Mo57  1  10.98267474  4.60084191  7.92060677  1
  Mo  Mo58  1  9.16097342  6.01266888  12.69598710  1
  Mo  Mo59  1  12.39770890  6.14520608  9.52091299  1
  Mo  Mo60  1  3.13458215  6.19059322  9.65687582  1
  Mo  Mo61  1  0.00000000  6.41437137  0.00000000  1
  Mo  Mo62  1  1.60359284  8.01796421  1.60359284  1
  Mo  Mo63  1  0.00000000  9.62155706  0.00000000  1
  Mo  Mo64  1  1.60359284  11.22514990  1.60359284  1
  Mo  Mo65  1  3.20718569  6.41437137  0.00000000  1
  Mo  Mo66  1  3.20718569  9.62155706  0.00000000  1
  Mo  Mo67  1  2.98830271  9.75427298  3.09322633  1
  Mo  Mo68  1  -0.25062518  9.51085454  3.32120461  1
  Mo  Mo69  1  11.09328790  11.16180053  4.65010150  1
  Mo  Mo70  1  4.81077853  8.01796421  1.60359284  1
  Mo  Mo71  1  4.81077853  11.22514990  1.60359284  1
  Mo  Mo72  1  6.41437137  6.41437137  0.00000000  1
  Mo  Mo73  1  8.01796421  8.01796421  1.60359284  1
  Mo  Mo74  1  6.41437137  9.62155706  0.00000000  1
  Mo  Mo75  1  8.01796421  11.22514990  1.60359284  1
  Mo  Mo76  1  6.37449503  9.43040680  2.88178046  1
  Mo  Mo77  1  9.62155706  6.41437137  0.00000000  1
  Mo  Mo78  1  11.22514990  8.01796421  1.60359284  1
  Mo  Mo79  1  9.62155706  9.62155706  0.00000000  1
  Mo  Mo80  1  11.22514990  11.22514990  1.60359284  1
  Mo  Mo81  1  9.48512755  9.53461551  3.17174777  1
  Mo  Mo82  1  12.71673948  9.57285351  6.49724187  1
  Mo  Mo83  1  9.53345378  9.69240309  6.40232705  1
  Mo  Mo84  1  11.24550510  7.93301847  4.94607609  1
  Mo  Mo85  1  1.73258526  8.07157287  4.85794302  1
  Mo  Mo86  1  1.40306927  11.19367380  4.87753367  1
  Mo  Mo87  1  2.84007711  9.60701053  6.50724074  1
  Mo  Mo88  1  7.55519611  10.57328693  4.43364129  1
  Mo  Mo89  1  8.07008346  7.85991847  4.68913385  1
  Mo  Mo90  1  4.92784577  8.23658903  4.89003474  1
  Mo  Mo91  1  6.39759074  9.49070785  6.75584232  1
  Mo  Mo92  1  4.66016988  11.03520110  4.74603905  1
  Mo  Mo93  1  9.38353026  12.77284040  6.09966007  1
  Mo  Mo94  1  9.49177029  12.70551929  3.11671922  1
  Mo  Mo95  1  9.39850375  6.38035336  3.07063702  1
  Mo  Mo96  1  6.31769905  6.39098771  3.22845439  1
  Mo  Mo97  1  3.04622071  12.78604646  2.92632360  1
  Mo  Mo98  1  6.29821763  12.47158339  6.45806059  1
  Mo  Mo99  1  6.08294894  12.60582844  3.20793039  1
  Mo  Mo100  1  -0.13476535  12.88563802  3.18681062  1
  Mo  Mo101  1  6.35393131  6.39188135  6.21761102  1
  Mo  Mo102  1  0.02566424  6.23007238  3.31013337  1
  Mo  Mo103  1  3.15327915  9.25896634  9.63258858  1
  Mo  Mo104  1  1.24373271  8.01185765  7.96609320  1
  Mo  Mo105  1  1.26018567  11.55123032  8.12333466  1
  Mo  Mo106  1  2.14087092  11.18751760  10.99806526  1
  Mo  Mo107  1  6.04744153  9.50185853  10.03422157  1
  Mo  Mo108  1  4.31358531  7.92681262  7.73352755  1
  Mo  Mo109  1  8.00369571  11.30388978  8.03821019  1
  Mo  Mo110  1  7.83453901  8.08065824  7.96305481  1
  Mo  Mo111  1  4.71443388  10.97016374  8.17591066  1
  Mo  Mo112  1  8.12703831  7.26860478  10.60664960  1
  Mo  Mo113  1  12.68844078  9.47059095  9.56753137  1
  Mo  Mo114  1  11.48043394  11.46792293  7.95033529  1
  Mo  Mo115  1  9.76814431  9.54445552  9.37035399  1
  Mo  Mo116  1  10.55044938  7.53007481  8.25369733  1
  Mo  Mo117  1  0.78094773  7.54986404  11.10401162  1
  Mo  Mo118  1  4.54353953  11.34241573  11.26039915  1
  Mo  Mo119  1  7.46340904  9.08273000  12.23923620  1
  Mo  Mo120  1  8.16567348  11.26496666  10.97473125  1
  Mo  Mo121  1  11.05684712  7.52515978  11.37597699  1
  Mo  Mo122  1  10.96599341  10.43933976  11.14909094  1
  Mo  Mo123  1  6.09131940  12.83182084  9.84204859  1
  Mo  Mo124  1  0.19179169  13.07558682  9.74592238  1
  Mo  Mo125  1  9.49577183  12.84443114  10.00850450  1
  Mo  Mo126  1  3.41465982  13.15492246  9.30064983  1
  Mo  Mo127  1  5.74420857  6.81375039  9.88522148  1
