# generated using pymatgen
data_Mo
_symmetry_space_group_name_H-M   'P 1'
_cell_length_a   12.82874274
_cell_length_b   12.82874274
_cell_length_c   29.78810234
_cell_angle_alpha   90.00000000
_cell_angle_beta   90.00000000
_cell_angle_gamma   90.00000000
_symmetry_Int_Tables_number   1
_chemical_formula_structural   Mo
_chemical_formula_sum   Mo128
_cell_volume   4902.42580387
_cell_formula_units_Z   128
loop_
 _symmetry_equiv_pos_site_id
 _symmetry_equiv_pos_as_xyz
  1  'x, y, z'
loop_
 _atom_site_type_symbol
 _atom_site_label
 _atom_site_symmetry_multiplicity
 _atom_site_fract_x
 _atom_site_fract_y
 _atom_site_fract_z
 _atom_site_occupancy
  Mo  Mo0  1  0.00000000  0.00000000  0.00000000  1
  Mo  Mo1  1  1.60359284  1.60359284  1.60359284  1
  Mo  Mo2  1  0.00000000  3.20718569  0.00000000  1
  Mo  Mo3  1  1.60359284  4.81077853  1.60359284  1
  Mo  Mo4  1  3.20718569  0.00000000  0.00000000  1
  Mo  Mo5  1  3.20718569  3.20718569  0.00000000  1
  Mo  Mo6  1  3.09393132  3.38522917  3.06389498  1
  Mo  Mo7  1  0.04858638  3.20657006  2.98022020  1
  Mo  Mo8  1  4.81077853  1.60359284  1.60359284  1
  Mo  Mo9  1  4.81077853  4.81077853  1.60359284  1
  Mo  Mo10  1  6.41437137  0.00000000  0.00000000  1
  Mo  Mo11  1  8.01796421  1.60359284  1.60359284  1
  Mo  Mo12  1  6.41437137  3.20718569  0.00000000  1
  Mo  Mo13  1  8.01796421  4.81077853  1.60359284  1
  Mo  Mo14  1  6.41703244  3.26059575  3.15600973  1
  Mo  Mo15  1  3.18554959  -0.23981905  6.16278106  1
  Mo  Mo16  1  11.13181384  1.66623722  4.55505760  1
  Mo  Mo17  1  9.62155706  0.00000000  0.00000000  1
  Mo  Mo18  1  11.22514990  1.60359284  1.60359284  1
  Mo  Mo19  1  9.62155706  3.20718569  0.00000000  1
  Mo  Mo20  1  11.22514990  4.81077853  1.60359284  1
  Mo  Mo21  1  9.77315864  3.46720603  3.10593593  1
  Mo  Mo22  1  7.83227511  5.07978495  4.83560195  1
  Mo  Mo23  1  0.03965323  3.44805228  6.58697356  1
  Mo  Mo24  1  1.49727911  1.76807281  4.89155393  1
  Mo  Mo25  1  1.77101191  4.91564258  4.49921484  1
  Mo  Mo26  1  3.03913114  3.48203058  6.27127926  1
  Mo  Mo27  1  9.83768960  3.60373483  6.05724181  1
  Mo  Mo28  1  11.25821469  4.84037797  4.73859203  1
  Mo  Mo29  1  8.09334797  1.88889336  5.01546251  1
  Mo  Mo30  1  4.89597250  4.68247124  4.62893209  1
  Mo  Mo31  1  6.61115157  3.41838333  6.37228078  1
  Mo  Mo32  1  4.54799782  1.63666757  4.87544850  1
  Mo  Mo33  1  9.77055714  0.09306220  6.57303273  1
  Mo  Mo34  1  6.47148509  0.17304802  6.24538347  1
  Mo  Mo35  1  3.12783018  0.03611668  3.07384421  1
  Mo  Mo36  1  6.63054363  6.62402996  6.35656259  1
  Mo  Mo37  1  3.16289078  6.40731159  3.04855411  1
  Mo  Mo38  1  6.41595014  0.11120296  3.48590303  1
  Mo  Mo39  1  -0.15146853  -0.12074012  3.17081441  1
  Mo  Mo40  1  9.60599774  0.01066086  3.40199987  1
  Mo  Mo41  1  10.14284885  6.52418024  6.35913430  1
  Mo  Mo42  1  4.77194477  1.38769861  7.76803210  1
  Mo  Mo43  1  1.58788458  1.46728249  7.93775478  1
  Mo  Mo44  1  1.47309117  4.98439352  7.97348065  1
  Mo  Mo45  1  3.46323428  3.18752554  9.24158002  1
  Mo  Mo46  1  1.99827527  1.69663102  10.80791788  1
  Mo  Mo47  1  9.65150403  0.36117478  9.78026806  1
  Mo  Mo48  1  0.23701698  3.21839594  9.52492445  1
  Mo  Mo49  1  7.91491724  1.23229408  11.20032648  1
  Mo  Mo50  1  6.38972668  3.58530593  9.74331096  1
  Mo  Mo51  1  4.83825309  4.88392818  7.89329108  1
  Mo  Mo52  1  8.16648769  1.60698869  8.16274432  1
  Mo  Mo53  1  7.78727522  4.97605285  7.88907109  1
  Mo  Mo54  1  6.36365216  0.47011583  9.60168839  1
  Mo  Mo55  1  1.72205020  4.89817682  11.23637008  1
  Mo  Mo56  1  4.45946758  1.81153366  11.36525327  1
  Mo  Mo57  1  11.12933150  1.92144182  8.17966396  1
  Mo  Mo58  1  10.65391339  1.83769754  11.53574051  1
  Mo  Mo59  1  11.65677950  4.77918328  10.64646636  1
  Mo  Mo60  1  8.96887987  3.46390948  9.93194908  1
  Mo  Mo61  1  11.18255291  4.91111479  8.17229637  1
  Mo  Mo62  1  3.52407152  0.04676365  9.48145368  1
  Mo  Mo63  1  0.28466007  0.14151434  9.55751264  1
  Mo  Mo64  1  0.00000000  6.41437137  0.00000000  1
  Mo  Mo65  1  1.60359284  8.01796421  1.60359284  1
  Mo  Mo66  1  0.00000000  9.62155706  0.00000000  1
  Mo  Mo67  1  1.60359284  11.22514990  1.60359284  1
  Mo  Mo68  1  3.20718569  6.41437137  0.00000000  1
  Mo  Mo69  1  3.20718569  9.62155706  0.00000000  1
  Mo  Mo70  1  3.20695731  9.59986139  3.06603973  1
  Mo  Mo71  1  0.08061405  9.71947055  3.13889150  1
  Mo  Mo72  1  0.05026742  9.90252837  6.48409539  1
  Mo  Mo73  1  9.88359306  9.63524965  6.52330646  1
  Mo  Mo74  1  11.39851665  8.18943446  4.83162027  1
  Mo  Mo75  1  3.27366280  6.55084060  6.29949852  1
  Mo  Mo76  1  4.81077853  8.01796421  1.60359284  1
  Mo  Mo77  1  4.81077853  11.22514990  1.60359284  1
  Mo  Mo78  1  6.41437137  6.41437137  0.00000000  1
  Mo  Mo79  1  8.01796421  8.01796421  1.60359284  1
  Mo  Mo80  1  6.41437137  9.62155706  0.00000000  1
  Mo  Mo81  1  8.01796421  11.22514990  1.60359284  1
  Mo  Mo82  1  6.59593978  9.55755235  3.52879790  1
  Mo  Mo83  1  9.62155706  6.41437137  0.00000000  1
  Mo  Mo84  1  11.22514990  8.01796421  1.60359284  1
  Mo  Mo85  1  9.62155706  9.62155706  0.00000000  1
  Mo  Mo86  1  11.22514990  11.22514990  1.60359284  1
  Mo  Mo87  1  9.48888085  9.58022110  3.34861960  1
  Mo  Mo88  1  11.34638747  11.30915235  4.76137000  1
  Mo  Mo89  1  1.53081058  8.29028704  4.67224399  1
  Mo  Mo90  1  1.69348341  11.29971945  4.69018636  1
  Mo  Mo91  1  3.31871234  9.62918281  6.11624211  1
  Mo  Mo92  1  4.68628412  8.01174843  4.80285489  1
  Mo  Mo93  1  8.21112020  11.21144737  5.00318981  1
  Mo  Mo94  1  8.19828153  8.00998100  4.92651523  1
  Mo  Mo95  1  4.88872406  11.24788815  4.82885991  1
  Mo  Mo96  1  6.60903662  9.59480734  6.71122967  1
  Mo  Mo97  1  9.69648406  6.54129847  3.04620085  1
  Mo  Mo98  1  12.87769452  6.58260464  3.20625232  1
  Mo  Mo99  1  0.00217213  6.56380835  6.55786066  1
  Mo  Mo100  1  12.90976638  13.00409537  6.30576395  1
  Mo  Mo101  1  6.58749982  6.51453883  3.17830116  1
  Mo  Mo102  1  3.23227720  9.66385616  9.29509931  1
  Mo  Mo103  1  1.55777874  8.13388958  7.86131851  1
  Mo  Mo104  1  1.73312144  11.11970002  7.86774281  1
  Mo  Mo105  1  0.07711335  9.66122488  9.82929928  1
  Mo  Mo106  1  10.85617460  8.63897664  11.45084442  1
  Mo  Mo107  1  6.26039667  9.86540246  10.00334123  1
  Mo  Mo108  1  4.80505921  8.24863335  7.85725740  1
  Mo  Mo109  1  7.84643439  11.56910319  8.13456477  1
  Mo  Mo110  1  8.05697670  7.90274383  8.23857490  1
  Mo  Mo111  1  4.89182202  11.36157941  8.00271270  1
  Mo  Mo112  1  5.32915108  12.05107468  11.35562179  1
  Mo  Mo113  1  11.24401570  11.41321212  11.18900700  1
  Mo  Mo114  1  11.24153335  11.55331549  7.99481886  1
  Mo  Mo115  1  9.58769791  10.04266153  9.46355103  1
  Mo  Mo116  1  11.09040838  8.31897299  8.18454921  1
  Mo  Mo117  1  7.88663840  8.24999367  11.32523792  1
  Mo  Mo118  1  9.32943507  10.00363911  13.13347503  1
  Mo  Mo119  1  1.92728029  11.28869785  10.91942467  1
  Mo  Mo120  1  1.61805000  8.14881342  11.18890771  1
  Mo  Mo121  1  4.52134740  8.89274148  11.54576917  1
  Mo  Mo122  1  8.21026627  11.60673549  11.05625136  1
  Mo  Mo123  1  0.05590720  6.94982244  9.69592802  1
  Mo  Mo124  1  9.68860014  6.59063750  9.56002477  1
  Mo  Mo125  1  0.09871440  6.46460404  12.21361843  1
  Mo  Mo126  1  3.18615528  6.26228325  9.54976773  1
  Mo  Mo127  1  6.20569578  6.60430031  10.03620744  1
