# generated using pymatgen
data_Mo
_symmetry_space_group_name_H-M   'P 1'
_cell_length_a   12.82874274
_cell_length_b   12.82874274
_cell_length_c   29.78810234
_cell_angle_alpha   90.00000000
_cell_angle_beta   90.00000000
_cell_angle_gamma   90.00000000
_symmetry_Int_Tables_number   1
_chemical_formula_structural   Mo
_chemical_formula_sum   Mo128
_cell_volume   4902.42580387
_cell_formula_units_Z   128
loop_
 _symmetry_equiv_pos_site_id
 _symmetry_equiv_pos_as_xyz
  1  'x, y, z'
loop_
 _atom_site_type_symbol
 _atom_site_label
 _atom_site_symmetry_multiplicity
 _atom_site_fract_x
 _atom_site_fract_y
 _atom_site_fract_z
 _atom_site_occupancy
  Mo  Mo0  1  0.00000000  0.00000000  0.00000000  1
  Mo  Mo1  1  1.60359284  1.60359284  1.60359284  1
  Mo  Mo2  1  0.00000000  3.20718569  0.00000000  1
  Mo  Mo3  1  1.60359284  4.81077853  1.60359284  1
  Mo  Mo4  1  3.20718569  0.00000000  0.00000000  1
  Mo  Mo5  1  3.20718569  3.20718569  0.00000000  1
  Mo  Mo6  1  3.36017738  3.35794327  3.20814883  1
  Mo  Mo7  1  13.05255068  3.34002076  3.18956106  1
  Mo  Mo8  1  11.28214447  4.79029424  4.94525195  1
  Mo  Mo9  1  9.68603837  3.06158144  6.62296752  1
  Mo  Mo10  1  4.81077853  1.60359284  1.60359284  1
  Mo  Mo11  1  4.81077853  4.81077853  1.60359284  1
  Mo  Mo12  1  6.41437137  0.00000000  0.00000000  1
  Mo  Mo13  1  8.01796421  1.60359284  1.60359284  1
  Mo  Mo14  1  6.41437137  3.20718569  0.00000000  1
  Mo  Mo15  1  8.01796421  4.81077853  1.60359284  1
  Mo  Mo16  1  6.47273619  3.28123891  3.01613473  1
  Mo  Mo17  1  11.27539250  1.41923428  4.85116127  1
  Mo  Mo18  1  9.62155706  0.00000000  0.00000000  1
  Mo  Mo19  1  11.22514990  1.60359284  1.60359284  1
  Mo  Mo20  1  9.62155706  3.20718569  0.00000000  1
  Mo  Mo21  1  11.22514990  4.81077853  1.60359284  1
  Mo  Mo22  1  9.70711841  3.18264029  3.35397152  1
  Mo  Mo23  1  7.90292256  1.55785818  4.59058488  1
  Mo  Mo24  1  6.48800756  3.36087243  6.38002569  1
  Mo  Mo25  1  -0.01442191  3.08568002  6.46813889  1
  Mo  Mo26  1  1.66058741  1.53016517  4.72433345  1
  Mo  Mo27  1  1.62678784  4.89435401  4.85662242  1
  Mo  Mo28  1  3.04124610  3.25202671  6.38220022  1
  Mo  Mo29  1  4.68595645  1.94676171  4.72783852  1
  Mo  Mo30  1  4.88810844  4.90291313  4.82251504  1
  Mo  Mo31  1  8.17609932  4.99619954  4.71490056  1
  Mo  Mo32  1  3.26362421  0.18097464  3.29664929  1
  Mo  Mo33  1  13.04003968  -0.14765168  6.42511495  1
  Mo  Mo34  1  6.35454693  0.07788228  6.30521783  1
  Mo  Mo35  1  9.67169043  0.00335412  6.62259021  1
  Mo  Mo36  1  -0.01095328  0.05253966  3.32932683  1
  Mo  Mo37  1  3.20144651  0.14019175  6.23605979  1
  Mo  Mo38  1  6.50868050  6.50530452  3.14206889  1
  Mo  Mo39  1  3.15472884  6.64213120  3.00467624  1
  Mo  Mo40  1  9.54623287  -0.02492738  3.12576487  1
  Mo  Mo41  1  1.69852752  1.59010876  7.96112851  1
  Mo  Mo42  1  1.27186261  4.74286165  8.62512517  1
  Mo  Mo43  1  3.40990365  3.32634802  9.41297083  1
  Mo  Mo44  1  2.00390522  4.84008009  11.20519187  1
  Mo  Mo45  1  6.61284950  2.94162475  12.79796170  1
  Mo  Mo46  1  -0.50638980  3.38195248  9.78383271  1
  Mo  Mo47  1  8.02010896  4.43937054  11.01762612  1
  Mo  Mo48  1  8.03356325  1.42481458  11.39692795  1
  Mo  Mo49  1  6.40172136  3.07238459  9.66180078  1
  Mo  Mo50  1  4.89491999  4.83247420  7.82725085  1
  Mo  Mo51  1  8.23196194  1.68733713  7.93805266  1
  Mo  Mo52  1  8.03568813  4.80555568  7.90548434  1
  Mo  Mo53  1  4.73114500  1.49982102  7.87561680  1
  Mo  Mo54  1  4.98275517  1.21674469  11.24977473  1
  Mo  Mo55  1  1.57407283  1.72809718  10.77207286  1
  Mo  Mo56  1  9.55308414  3.16806398  9.68380426  1
  Mo  Mo57  1  11.24818603  1.61595491  7.97938862  1
  Mo  Mo58  1  11.13310466  4.98534674  7.95881497  1
  Mo  Mo59  1  10.94643255  1.44745354  10.99488787  1
  Mo  Mo60  1  10.88715423  5.10219553  11.26695253  1
  Mo  Mo61  1  8.22568658  -0.21185795  13.44108683  1
  Mo  Mo62  1  12.46115756  6.60277119  12.81444445  1
  Mo  Mo63  1  3.15116419  0.12778798  9.46086017  1
  Mo  Mo64  1  5.90365436  6.21229881  9.83648814  1
  Mo  Mo65  1  6.21582374  -0.03364795  9.50585014  1
  Mo  Mo66  1  0.00000000  6.41437137  0.00000000  1
  Mo  Mo67  1  1.60359284  8.01796421  1.60359284  1
  Mo  Mo68  1  0.00000000  9.62155706  0.00000000  1
  Mo  Mo69  1  1.60359284  11.22514990  1.60359284  1
  Mo  Mo70  1  3.20718569  6.41437137  0.00000000  1
  Mo  Mo71  1  3.20718569  9.62155706  0.00000000  1
  Mo  Mo72  1  3.26767539  9.62980836  3.19467468  1
  Mo  Mo73  1  11.07531574  11.33804681  4.42725671  1
  Mo  Mo74  1  4.81077853  8.01796421  1.60359284  1
  Mo  Mo75  1  4.81077853  11.22514990  1.60359284  1
  Mo  Mo76  1  6.41437137  6.41437137  0.00000000  1
  Mo  Mo77  1  8.01796421  8.01796421  1.60359284  1
  Mo  Mo78  1  6.41437137  9.62155706  0.00000000  1
  Mo  Mo79  1  8.01796421  11.22514990  1.60359284  1
  Mo  Mo80  1  6.44843903  9.85593977  3.05611036  1
  Mo  Mo81  1  11.08742957  8.00573123  4.53935927  1
  Mo  Mo82  1  -0.10296456  9.76541373  3.28937106  1
  Mo  Mo83  1  9.62155706  6.41437137  0.00000000  1
  Mo  Mo84  1  11.22514990  8.01796421  1.60359284  1
  Mo  Mo85  1  9.62155706  9.62155706  0.00000000  1
  Mo  Mo86  1  11.22514990  11.22514990  1.60359284  1
  Mo  Mo87  1  9.58933626  9.66748038  3.12313359  1
  Mo  Mo88  1  8.10627601  8.33399612  4.55072839  1
  Mo  Mo89  1  1.38429283  7.95374106  4.98299348  1
  Mo  Mo90  1  1.67228421  11.23607220  4.64450134  1
  Mo  Mo91  1  3.40816601  9.28453447  6.51560127  1
  Mo  Mo92  1  -0.03099949  9.58377581  6.50509600  1
  Mo  Mo93  1  9.63554753  9.79939203  6.50432151  1
  Mo  Mo94  1  4.83390402  8.08077739  4.77722720  1
  Mo  Mo95  1  4.80031297  11.18602819  4.94899532  1
  Mo  Mo96  1  6.31221804  9.25383286  6.28567684  1
  Mo  Mo97  1  7.62120655  11.22078098  4.73962468  1
  Mo  Mo98  1  6.62802157  6.51054722  6.33821312  1
  Mo  Mo99  1  6.37933063  12.89268787  3.09718815  1
  Mo  Mo100  1  3.15826369  6.25980091  6.89138811  1
  Mo  Mo101  1  9.79114072  6.45964929  6.32505671  1
  Mo  Mo102  1  9.80889443  6.32614894  3.11042400  1
  Mo  Mo103  1  -0.02459653  6.20675823  6.27935183  1
  Mo  Mo104  1  -0.10904531  6.36799129  3.19452574  1
  Mo  Mo105  1  3.40909937  9.70451692  9.53020687  1
  Mo  Mo106  1  1.77646313  8.05676818  8.34364747  1
  Mo  Mo107  1  1.58570012  11.45541193  7.86841801  1
  Mo  Mo108  1  -0.15281793  9.86060658  9.80021616  1
  Mo  Mo109  1  1.37158324  7.94472520  11.34152208  1
  Mo  Mo110  1  8.04365149  8.22820864  11.02537102  1
  Mo  Mo111  1  12.55121692  6.64326315  10.03144134  1
  Mo  Mo112  1  7.80086852  11.44826278  11.08306065  1
  Mo  Mo113  1  6.33915641  9.80785185  9.34875761  1
  Mo  Mo114  1  4.97309390  7.83748803  8.11538124  1
  Mo  Mo115  1  7.96798971  11.32176264  7.95528012  1
  Mo  Mo116  1  7.88409648  7.86768324  7.91876983  1
  Mo  Mo117  1  4.82505696  10.97800794  7.84901603  1
  Mo  Mo118  1  10.85279862  8.31227066  11.05565560  1
  Mo  Mo119  1  11.17441083  11.34052915  7.82293158  1
  Mo  Mo120  1  9.46729440  10.02290209  9.74530676  1
  Mo  Mo121  1  11.03212299  7.93093331  8.00158076  1
  Mo  Mo122  1  10.34560653  11.92407807  11.60067857  1
  Mo  Mo123  1  5.25869229  11.61487757  11.43386520  1
  Mo  Mo124  1  3.28726603  6.36876579  9.85909731  1
  Mo  Mo125  1  -0.11078592  12.51537190  9.61804206  1
  Mo  Mo126  1  9.58436164  12.76023011  9.55104862  1
  Mo  Mo127  1  9.55174367  6.38775074  9.39273478  1
