# generated using pymatgen
data_Mo
_symmetry_space_group_name_H-M   'P 1'
_cell_length_a   12.82874274
_cell_length_b   12.82874274
_cell_length_c   29.78810234
_cell_angle_alpha   90.00000000
_cell_angle_beta   90.00000000
_cell_angle_gamma   90.00000000
_symmetry_Int_Tables_number   1
_chemical_formula_structural   Mo
_chemical_formula_sum   Mo128
_cell_volume   4902.42580387
_cell_formula_units_Z   128
loop_
 _symmetry_equiv_pos_site_id
 _symmetry_equiv_pos_as_xyz
  1  'x, y, z'
loop_
 _atom_site_type_symbol
 _atom_site_label
 _atom_site_symmetry_multiplicity
 _atom_site_fract_x
 _atom_site_fract_y
 _atom_site_fract_z
 _atom_site_occupancy
  Mo  Mo0  1  0.00000000  0.00000000  0.00000000  1
  Mo  Mo1  1  1.60359284  1.60359284  1.60359284  1
  Mo  Mo2  1  0.00000000  3.20718569  0.00000000  1
  Mo  Mo3  1  1.60359284  4.81077853  1.60359284  1
  Mo  Mo4  1  3.20718569  0.00000000  0.00000000  1
  Mo  Mo5  1  3.20718569  3.20718569  0.00000000  1
  Mo  Mo6  1  3.31919888  3.07658472  3.12975648  1
  Mo  Mo7  1  11.37418970  1.51693925  5.01119288  1
  Mo  Mo8  1  4.81077853  1.60359284  1.60359284  1
  Mo  Mo9  1  4.81077853  4.81077853  1.60359284  1
  Mo  Mo10  1  6.41437137  0.00000000  0.00000000  1
  Mo  Mo11  1  8.01796421  1.60359284  1.60359284  1
  Mo  Mo12  1  6.41437137  3.20718569  0.00000000  1
  Mo  Mo13  1  8.01796421  4.81077853  1.60359284  1
  Mo  Mo14  1  6.43812242  3.43264190  2.96104660  1
  Mo  Mo15  1  -0.06408592  3.28358224  6.39075933  1
  Mo  Mo16  1  -0.05603827  3.35006928  3.11071195  1
  Mo  Mo17  1  9.62155706  0.00000000  0.00000000  1
  Mo  Mo18  1  11.22514990  1.60359284  1.60359284  1
  Mo  Mo19  1  9.62155706  3.20718569  0.00000000  1
  Mo  Mo20  1  11.22514990  4.81077853  1.60359284  1
  Mo  Mo21  1  9.52580817  3.02334345  3.13823616  1
  Mo  Mo22  1  3.33473834  -0.01395811  3.24843228  1
  Mo  Mo23  1  1.58502493  1.96020607  4.59198492  1
  Mo  Mo24  1  1.78360235  4.70174414  4.66216569  1
  Mo  Mo25  1  3.36531086  3.16067653  6.63145713  1
  Mo  Mo26  1  9.88094192  3.32573240  6.28226114  1
  Mo  Mo27  1  5.01537314  4.59281898  4.83762754  1
  Mo  Mo28  1  6.45497255  3.02413780  6.47105813  1
  Mo  Mo29  1  8.04962897  4.71693608  4.64486873  1
  Mo  Mo30  1  8.23660888  1.62233949  4.68879625  1
  Mo  Mo31  1  4.61092022  1.66930540  4.94930313  1
  Mo  Mo32  1  11.11165723  4.95992756  4.49656369  1
  Mo  Mo33  1  9.53995751  -0.15419811  2.84631275  1
  Mo  Mo34  1  9.84454086  6.60343646  3.11062259  1
  Mo  Mo35  1  9.55460333  6.46404800  6.29236923  1
  Mo  Mo36  1  12.94362552  6.42873916  3.02300585  1
  Mo  Mo37  1  3.24359668  6.23299162  6.04217896  1
  Mo  Mo38  1  3.22291380  6.49469995  3.00615571  1
  Mo  Mo39  1  6.07920557  -0.10267462  3.38596395  1
  Mo  Mo40  1  13.07866492  -0.02075943  3.09062484  1
  Mo  Mo41  1  0.01253801  5.90324725  6.38511945  1
  Mo  Mo42  1  1.97371001  1.65264392  7.97759140  1
  Mo  Mo43  1  1.77643334  5.06789950  8.41252749  1
  Mo  Mo44  1  3.48777968  2.83415921  9.73564549  1
  Mo  Mo45  1  0.01280134  3.48324196  9.72287632  1
  Mo  Mo46  1  5.27832265  1.24897541  10.72312108  1
  Mo  Mo47  1  9.80813980  1.74677432  12.60890655  1
  Mo  Mo48  1  8.65676014  5.35867109  10.17204119  1
  Mo  Mo49  1  5.00173019  4.25043453  11.27261227  1
  Mo  Mo50  1  6.71899443  3.29792024  9.46731426  1
  Mo  Mo51  1  4.99783788  4.75821246  8.08613925  1
  Mo  Mo52  1  8.09912686  1.62974680  7.72248610  1
  Mo  Mo53  1  7.96115830  4.84547174  7.76330573  1
  Mo  Mo54  1  4.99421366  1.50449776  7.95387015  1
  Mo  Mo55  1  7.87495153  1.92711149  11.27072569  1
  Mo  Mo56  1  9.67306068  3.32814524  9.40908845  1
  Mo  Mo57  1  11.64337485  1.46111635  8.19737795  1
  Mo  Mo58  1  11.51766906  5.28375402  8.31755309  1
  Mo  Mo59  1  12.52778361  1.34351292  11.68011351  1
  Mo  Mo60  1  10.84386219  4.41235273  11.42621959  1
  Mo  Mo61  1  1.79304517  5.31099027  11.60127434  1
  Mo  Mo62  1  1.79708643  1.78366192  11.17609882  1
  Mo  Mo63  1  3.65418595  6.49396518  10.10054974  1
  Mo  Mo64  1  9.24410208  0.40257727  9.70898514  1
  Mo  Mo65  1  0.00000000  6.41437137  0.00000000  1
  Mo  Mo66  1  1.60359284  8.01796421  1.60359284  1
  Mo  Mo67  1  0.00000000  9.62155706  0.00000000  1
  Mo  Mo68  1  1.60359284  11.22514990  1.60359284  1
  Mo  Mo69  1  3.20718569  6.41437137  0.00000000  1
  Mo  Mo70  1  3.20718569  9.62155706  0.00000000  1
  Mo  Mo71  1  2.90565065  9.63568655  3.20726512  1
  Mo  Mo72  1  11.65052400  11.19367380  4.62298440  1
  Mo  Mo73  1  9.59173916  9.59257323  6.47057159  1
  Mo  Mo74  1  4.81077853  8.01796421  1.60359284  1
  Mo  Mo75  1  4.81077853  11.22514990  1.60359284  1
  Mo  Mo76  1  6.41437137  6.41437137  0.00000000  1
  Mo  Mo77  1  8.01796421  8.01796421  1.60359284  1
  Mo  Mo78  1  6.41437137  9.62155706  0.00000000  1
  Mo  Mo79  1  8.01796421  11.22514990  1.60359284  1
  Mo  Mo80  1  6.40073835  9.58887951  3.37196354  1
  Mo  Mo81  1  11.22107886  7.98107661  4.77653214  1
  Mo  Mo82  1  -0.05747843  9.46452411  3.17776497  1
  Mo  Mo83  1  9.62155706  6.41437137  0.00000000  1
  Mo  Mo84  1  11.22514990  8.01796421  1.60359284  1
  Mo  Mo85  1  9.62155706  9.62155706  0.00000000  1
  Mo  Mo86  1  11.22514990  11.22514990  1.60359284  1
  Mo  Mo87  1  9.55564591  9.84071805  3.00653303  1
  Mo  Mo88  1  6.35773426  9.35232226  6.26823094  1
  Mo  Mo89  1  7.88007509  7.82242518  4.91154175  1
  Mo  Mo90  1  0.05471558  9.47151438  6.43438898  1
  Mo  Mo91  1  4.82647686  7.74631658  4.77087240  1
  Mo  Mo92  1  1.45974610  7.88449366  4.81231758  1
  Mo  Mo93  1  1.53565611  11.16775815  4.75260236  1
  Mo  Mo94  1  3.12443434  9.41174952  6.25787461  1
  Mo  Mo95  1  4.66672326  10.88904081  4.74642630  1
  Mo  Mo96  1  8.09277207  11.52452033  4.77054473  1
  Mo  Mo97  1  6.33872945  6.36788207  3.27133933  1
  Mo  Mo98  1  6.49648724  6.52186670  6.57481009  1
  Mo  Mo99  1  3.22180171  12.60553056  6.54215240  1
  Mo  Mo100  1  6.39553536  12.85922590  6.21107750  1
  Mo  Mo101  1  0.38957178  12.70323554  6.60844086  1
  Mo  Mo102  1  9.66008300  12.95007961  6.41641682  1
  Mo  Mo103  1  3.07563150  9.40054919  9.79180599  1
  Mo  Mo104  1  1.73448176  7.72947637  7.85717797  1
  Mo  Mo105  1  1.91351819  10.89003375  8.04534941  1
  Mo  Mo106  1  0.65972207  12.91075932  9.72233021  1
  Mo  Mo107  1  12.86945315  9.18750469  9.89463452  1
  Mo  Mo108  1  7.61559646  9.00939169  11.94433398  1
  Mo  Mo109  1  6.73218063  9.31988301  9.23673449  1
  Mo  Mo110  1  4.49379340  7.93496463  8.43175074  1
  Mo  Mo111  1  8.10160920  11.26049845  7.79291510  1
  Mo  Mo112  1  8.25332001  7.76152837  8.30202356  1
  Mo  Mo113  1  4.73816506  10.97522772  7.73732057  1
  Mo  Mo114  1  5.69941720  10.94682973  11.88207685  1
  Mo  Mo115  1  1.41169789  8.02386226  11.70741927  1
  Mo  Mo116  1  11.12188448  11.75925057  10.98118534  1
  Mo  Mo117  1  11.84206150  11.13657994  8.20907475  1
  Mo  Mo118  1  10.03461874  9.89230112  9.40487840  1
  Mo  Mo119  1  11.37756569  8.02603679  7.59232202  1
  Mo  Mo120  1  10.65053740  9.36638224  11.68676619  1
  Mo  Mo121  1  7.96453429  11.74713674  11.26020057  1
  Mo  Mo122  1  10.15863654  7.35556618  10.23231245  1
  Mo  Mo123  1  6.53827995  12.56958625  9.21850417  1
  Mo  Mo124  1  0.18970851  6.32132327  10.48938377  1
  Mo  Mo125  1  3.38891297  12.71783171  9.59913654  1
  Mo  Mo126  1  11.96756870  6.72775214  12.62687870  1
  Mo  Mo127  1  6.36458552  6.64405750  9.78546112  1
