# generated using pymatgen
data_Mo
_symmetry_space_group_name_H-M   'P 1'
_cell_length_a   12.82874274
_cell_length_b   12.82874274
_cell_length_c   29.78810234
_cell_angle_alpha   90.00000000
_cell_angle_beta   90.00000000
_cell_angle_gamma   90.00000000
_symmetry_Int_Tables_number   1
_chemical_formula_structural   Mo
_chemical_formula_sum   Mo128
_cell_volume   4902.42580387
_cell_formula_units_Z   128
loop_
 _symmetry_equiv_pos_site_id
 _symmetry_equiv_pos_as_xyz
  1  'x, y, z'
loop_
 _atom_site_type_symbol
 _atom_site_label
 _atom_site_symmetry_multiplicity
 _atom_site_fract_x
 _atom_site_fract_y
 _atom_site_fract_z
 _atom_site_occupancy
  Mo  Mo0  1  0.00000000  0.00000000  0.00000000  1
  Mo  Mo1  1  1.60359284  1.60359284  1.60359284  1
  Mo  Mo2  1  0.00000000  3.20718569  0.00000000  1
  Mo  Mo3  1  1.60359284  4.81077853  1.60359284  1
  Mo  Mo4  1  3.20718569  0.00000000  0.00000000  1
  Mo  Mo5  1  3.20718569  3.20718569  0.00000000  1
  Mo  Mo6  1  3.01442687  3.21635049  3.35807235  1
  Mo  Mo7  1  12.46850529  -0.01510287  6.52685124  1
  Mo  Mo8  1  4.81077853  1.60359284  1.60359284  1
  Mo  Mo9  1  4.81077853  4.81077853  1.60359284  1
  Mo  Mo10  1  6.41437137  0.00000000  0.00000000  1
  Mo  Mo11  1  8.01796421  1.60359284  1.60359284  1
  Mo  Mo12  1  6.41437137  3.20718569  0.00000000  1
  Mo  Mo13  1  8.01796421  4.81077853  1.60359284  1
  Mo  Mo14  1  6.36385075  3.36555910  3.07513503  1
  Mo  Mo15  1  12.62936104  0.03383055  3.00590748  1
  Mo  Mo16  1  0.08663909  3.13054090  3.03493102  1
  Mo  Mo17  1  9.62155706  0.00000000  0.00000000  1
  Mo  Mo18  1  11.22514990  1.60359284  1.60359284  1
  Mo  Mo19  1  9.62155706  3.20718569  0.00000000  1
  Mo  Mo20  1  11.22514990  4.81077853  1.60359284  1
  Mo  Mo21  1  9.55936943  3.21181277  3.10457560  1
  Mo  Mo22  1  9.35424855  3.22500890  6.16627620  1
  Mo  Mo23  1  11.14025381  1.46791797  4.68347411  1
  Mo  Mo24  1  0.14714727  3.19517115  6.24826298  1
  Mo  Mo25  1  1.32304849  1.53422628  4.79634123  1
  Mo  Mo26  1  1.44392861  4.71378847  5.04693860  1
  Mo  Mo27  1  3.03158482  3.13120617  6.46493171  1
  Mo  Mo28  1  7.77740543  1.64516710  4.87543857  1
  Mo  Mo29  1  8.07155301  4.71936877  4.57269216  1
  Mo  Mo30  1  4.45471141  5.23373979  4.98559497  1
  Mo  Mo31  1  5.97823383  3.28799088  6.38641027  1
  Mo  Mo32  1  4.70382931  1.56780740  4.50438804  1
  Mo  Mo33  1  11.23408633  4.70495133  4.62600293  1
  Mo  Mo34  1  9.73774058  6.31964520  3.31112630  1
  Mo  Mo35  1  6.40905916  6.36192445  6.19591536  1
  Mo  Mo36  1  6.20698660  0.04677457  3.10850763  1
  Mo  Mo37  1  2.95283501  6.32001259  6.54599507  1
  Mo  Mo38  1  0.06876246  6.30245747  3.14105610  1
  Mo  Mo39  1  6.30633985  6.36616429  2.99641500  1
  Mo  Mo40  1  3.12996499  0.03340190  2.93169539  1
  Mo  Mo41  1  1.67644461  1.76798345  7.97167350  1
  Mo  Mo42  1  1.32592801  4.67764557  8.06219954  1
  Mo  Mo43  1  3.22665717  3.29873445  9.84006272  1
  Mo  Mo44  1  1.04926605  5.04073275  10.89231750  1
  Mo  Mo45  1  11.21184455  1.72875252  11.67584389  1
  Mo  Mo46  1  6.11094976  3.00128039  9.30180164  1
  Mo  Mo47  1  4.30976251  5.09626770  8.23902172  1
  Mo  Mo48  1  7.63001390  1.53152549  8.01912595  1
  Mo  Mo49  1  7.66330707  4.56425219  7.91324910  1
  Mo  Mo50  1  4.65652580  1.51774353  7.75090395  1
  Mo  Mo51  1  4.98495949  4.89875272  11.06409556  1
  Mo  Mo52  1  4.82435197  1.57060748  11.29326536  1
  Mo  Mo53  1  7.28846352  1.78595561  11.22743365  1
  Mo  Mo54  1  6.08547100  3.76503741  12.85594921  1
  Mo  Mo55  1  12.61764439  2.88631818  9.58779721  1
  Mo  Mo56  1  10.82171970  1.87281771  7.78445528  1
  Mo  Mo57  1  10.94107070  4.70669890  7.72838414  1
  Mo  Mo58  1  9.03440377  2.81972191  9.42359526  1
  Mo  Mo59  1  10.68916264  4.89879244  10.40994883  1
  Mo  Mo60  1  7.65154077  4.60215259  10.84981981  1
  Mo  Mo61  1  9.72778143  0.49410717  13.09187098  1
  Mo  Mo62  1  2.92786265  6.39540628  9.84402453  1
  Mo  Mo63  1  6.56121679  0.03724545  9.61649308  1
  Mo  Mo64  1  12.67166015  0.44185487  9.30694505  1
  Mo  Mo65  1  6.32176016  6.35617535  9.31317076  1
  Mo  Mo66  1  0.00000000  6.41437137  0.00000000  1
  Mo  Mo67  1  1.60359284  8.01796421  1.60359284  1
  Mo  Mo68  1  0.00000000  9.62155706  0.00000000  1
  Mo  Mo69  1  1.60359284  11.22514990  1.60359284  1
  Mo  Mo70  1  3.20718569  6.41437137  0.00000000  1
  Mo  Mo71  1  3.20718569  9.62155706  0.00000000  1
  Mo  Mo72  1  3.05763948  9.72307491  3.14014260  1
  Mo  Mo73  1  2.89169989  6.51335723  2.98258339  1
  Mo  Mo74  1  4.81077853  8.01796421  1.60359284  1
  Mo  Mo75  1  4.81077853  11.22514990  1.60359284  1
  Mo  Mo76  1  6.41437137  6.41437137  0.00000000  1
  Mo  Mo77  1  8.01796421  8.01796421  1.60359284  1
  Mo  Mo78  1  6.41437137  9.62155706  0.00000000  1
  Mo  Mo79  1  8.01796421  11.22514990  1.60359284  1
  Mo  Mo80  1  6.13905980  9.40934661  3.12884298  1
  Mo  Mo81  1  12.39194987  9.69851958  6.46060251  1
  Mo  Mo82  1  12.72676814  9.67101523  3.09181636  1
  Mo  Mo83  1  9.62155706  6.41437137  0.00000000  1
  Mo  Mo84  1  11.22514990  8.01796421  1.60359284  1
  Mo  Mo85  1  9.62155706  9.62155706  0.00000000  1
  Mo  Mo86  1  11.22514990  11.22514990  1.60359284  1
  Mo  Mo87  1  9.61647322  9.37850600  3.13556516  1
  Mo  Mo88  1  11.16666592  7.96920109  4.62786965  1
  Mo  Mo89  1  11.15812667  11.23627079  4.61222097  1
  Mo  Mo90  1  9.36604464  9.51852001  6.07139116  1
  Mo  Mo91  1  1.35085072  8.09711120  4.71084937  1
  Mo  Mo92  1  1.22307962  11.31997536  4.74139211  1
  Mo  Mo93  1  2.99330711  9.71850740  6.27270908  1
  Mo  Mo94  1  4.58771529  11.01365437  4.73050952  1
  Mo  Mo95  1  4.43272779  8.02548074  4.79326312  1
  Mo  Mo96  1  7.93228370  7.84022854  4.75883801  1
  Mo  Mo97  1  7.94415922  11.02447738  4.61578561  1
  Mo  Mo98  1  6.26135982  9.40779763  6.26638408  1
  Mo  Mo99  1  6.19035491  12.63363067  6.17556015  1
  Mo  Mo100  1  12.61963026  6.64273689  6.43881747  1
  Mo  Mo101  1  9.57903950  12.62846740  3.22225846  1
  Mo  Mo102  1  3.19796130  12.63601372  6.33261296  1
  Mo  Mo103  1  9.29872353  12.72815825  6.18315612  1
  Mo  Mo104  1  9.53493325  6.47672780  6.25484615  1
  Mo  Mo105  1  3.28761356  10.13063572  9.73692638  1
  Mo  Mo106  1  1.46243695  8.34092682  8.26072732  1
  Mo  Mo107  1  1.58470719  11.63980028  7.96236968  1
  Mo  Mo108  1  1.19459227  7.85256081  11.26288149  1
  Mo  Mo109  1  2.62140265  10.81546420  11.98345569  1
  Mo  Mo110  1  5.97237551  9.32571155  9.37470305  1
  Mo  Mo111  1  4.62476176  8.06480104  7.91911736  1
  Mo  Mo112  1  7.78382973  11.22812871  7.65175921  1
  Mo  Mo113  1  7.85194519  7.95822914  7.80122598  1
  Mo  Mo114  1  4.66925525  11.03808062  7.99488836  1
  Mo  Mo115  1  8.13203279  11.87194889  11.47656148  1
  Mo  Mo116  1  5.03852843  11.99695963  11.31232974  1
  Mo  Mo117  1  0.28663204  12.77035806  11.72976035  1
  Mo  Mo118  1  0.42500572  10.19388580  9.89727573  1
  Mo  Mo119  1  10.83611728  11.22157533  8.17748943  1
  Mo  Mo120  1  9.21113658  9.81345201  9.16759631  1
  Mo  Mo121  1  11.03500251  8.33911967  8.06328185  1
  Mo  Mo122  1  11.01782471  8.42029225  10.88973587  1
  Mo  Mo123  1  10.99200835  11.81018823  10.88576412  1
  Mo  Mo124  1  2.64927439  12.65527669  10.24174535  1
  Mo  Mo125  1  9.12799799  6.57659738  9.40207832  1
  Mo  Mo126  1  0.07940158  6.65399679  9.36497227  1
  Mo  Mo127  1  9.14276296  12.69479557  9.56739236  1
