# generated using pymatgen
data_Mo
_symmetry_space_group_name_H-M   'P 1'
_cell_length_a   12.88523781
_cell_length_b   13.00725645
_cell_length_c   12.86145962
_cell_angle_alpha   90.00000000
_cell_angle_beta   90.00000000
_cell_angle_gamma   90.00000000
_symmetry_Int_Tables_number   1
_chemical_formula_structural   Mo
_chemical_formula_sum   Mo128
_cell_volume   2155.60111561
_cell_formula_units_Z   128
loop_
 _symmetry_equiv_pos_site_id
 _symmetry_equiv_pos_as_xyz
  1  'x, y, z'
loop_
 _atom_site_type_symbol
 _atom_site_label
 _atom_site_symmetry_multiplicity
 _atom_site_fract_x
 _atom_site_fract_y
 _atom_site_fract_z
 _atom_site_occupancy
  Mo  Mo0  1  5.00902828  4.56589054  4.84363480  1
  Mo  Mo1  1  1.81069959  1.50515309  1.09893274  1
  Mo  Mo2  1  4.95336424  4.73453092  1.58653419  1
  Mo  Mo3  1  1.53052263  1.56329947  4.85963102  1
  Mo  Mo4  1  2.84635247  3.10955022  3.47347146  1
  Mo  Mo5  1  1.76409114  4.51085205  1.61786134  1
  Mo  Mo6  1  4.61919138  1.71299461  1.74673460  1
  Mo  Mo7  1  1.37931822  4.82134337  4.35745326  1
  Mo  Mo8  1  4.76461690  1.27978624  4.56214717  1
  Mo  Mo9  1  3.22620042  5.44415302  6.33971246  1
  Mo  Mo10  1  2.73360450  -0.10104621  3.12999478  1
  Mo  Mo11  1  -0.08691185  6.23390512  2.91535165  1
  Mo  Mo12  1  0.26482219  6.24846157  5.82188601  1
  Mo  Mo13  1  3.24249452  2.74588713  6.19828848  1
  Mo  Mo14  1  3.21328232  0.17795313  0.06891110  1
  Mo  Mo15  1  4.85733733  4.76061536  11.22385908  1
  Mo  Mo16  1  1.77222329  1.26961857  7.97664811  1
  Mo  Mo17  1  3.11612346  0.22691881  9.36749433  1
  Mo  Mo18  1  1.57204724  1.90902019  11.03579686  1
  Mo  Mo19  1  4.85533160  4.77292778  8.34873130  1
  Mo  Mo20  1  1.36817747  4.65724072  8.37695056  1
  Mo  Mo21  1  3.30778011  3.34062645  9.83748108  1
  Mo  Mo22  1  1.40743819  4.46742100  11.39523996  1
  Mo  Mo23  1  4.90985376  0.89295794  10.95060289  1
  Mo  Mo24  1  4.74667453  1.43311553  8.08820456  1
  Mo  Mo25  1  2.68166398  6.21492017  9.51390285  1
  Mo  Mo26  1  6.39059054  3.15173017  9.76677405  1
  Mo  Mo27  1  0.04244636  -0.25822114  9.33510473  1
  Mo  Mo28  1  3.55821861  3.02933086  12.58080644  1
  Mo  Mo29  1  3.24466905  0.00088603  6.37370068  1
  Mo  Mo30  1  -0.18246305  6.18465545  12.61526134  1
  Mo  Mo31  1  0.03612512  -0.15720572  12.52708856  1
  Mo  Mo32  1  -0.03752040  9.77595872  -0.10423751  1
  Mo  Mo33  1  1.52706721  8.10478660  1.13936513  1
  Mo  Mo34  1  5.08906891  11.37617558  4.98125584  1
  Mo  Mo35  1  1.73571301  7.94744585  4.68285849  1
  Mo  Mo36  1  4.21800522  8.06900116  4.64053952  1
  Mo  Mo37  1  1.34312568  11.68209939  1.52200323  1
  Mo  Mo38  1  4.38031066  11.47963959  1.79260828  1
  Mo  Mo39  1  1.26289639  11.12128871  4.85432873  1
  Mo  Mo40  1  3.09518242  9.69553084  3.13389702  1
  Mo  Mo41  1  4.22702109  8.02752619  1.65520569  1
  Mo  Mo42  1  0.19158218  9.51682209  3.18012816  1
  Mo  Mo43  1  6.27288781  12.48002336  0.23003961  1
  Mo  Mo44  1  5.94926987  10.01535577  0.00804246  1
  Mo  Mo45  1  3.42949429  9.64143565  6.28495199  1
  Mo  Mo46  1  5.67882369  9.68449932  2.65818103  1
  Mo  Mo47  1  3.32627852  6.34387286  3.03973683  1
  Mo  Mo48  1  4.58742734  11.23140540  10.92369430  1
  Mo  Mo49  1  1.31844127  8.04815942  7.91674424  1
  Mo  Mo50  1  2.94673838  9.64447404  9.44989815  1
  Mo  Mo51  1  1.02061982  8.23541736  10.58818098  1
  Mo  Mo52  1  0.01070892  12.68288033  6.47275605  1
  Mo  Mo53  1  1.94054593  11.20995797  7.80114655  1
  Mo  Mo54  1  4.26003623  11.25295213  8.12533046  1
  Mo  Mo55  1  1.39242499  11.24798744  11.03281805  1
  Mo  Mo56  1  4.68733663  7.54407522  11.23478138  1
  Mo  Mo57  1  4.46551456  7.49871787  8.23952812  1
  Mo  Mo58  1  6.19799059  9.10556755  9.34769517  1
  Mo  Mo59  1  6.02132729  9.31179058  6.61598718  1
  Mo  Mo60  1  2.61972459  6.44414954  12.16516311  1
  Mo  Mo61  1  3.45367230  9.58768798  12.37497065  1
  Mo  Mo62  1  11.13697712  4.93221469  4.33893499  1
  Mo  Mo63  1  7.76841935  1.01680694  1.39553288  1
  Mo  Mo64  1  11.33536588  1.27623153  5.03261053  1
  Mo  Mo65  1  7.96973728  1.74697291  4.60752438  1
  Mo  Mo66  1  9.62412876  3.32407420  3.07561164  1
  Mo  Mo67  1  8.25423351  4.46201943  1.26755326  1
  Mo  Mo68  1  10.79302383  5.04758401  1.34078235  1
  Mo  Mo69  1  8.18542299  4.81394600  4.57687242  1
  Mo  Mo70  1  9.71124903  0.15761977  3.36564846  1
  Mo  Mo71  1  10.94951066  1.65165098  1.97197237  1
  Mo  Mo72  1  12.50504536  3.38232980  2.96590206  1
  Mo  Mo73  1  12.62330413  -0.17427926  2.95004486  1
  Mo  Mo74  1  6.35684062  6.18087237  2.79500771  1
  Mo  Mo75  1  6.61438855  3.21989528  2.77994486  1
  Mo  Mo76  1  9.72881408  3.18757518  5.97574156  1
  Mo  Mo77  1  12.59947365  3.08102314  0.36352109  1
  Mo  Mo78  1  6.78549141  -0.01879212  6.28406828  1
  Mo  Mo79  1  9.92836458  2.66964945  9.65804748  1
  Mo  Mo80  1  8.25772865  1.86090247  7.87999565  1
  Mo  Mo81  1  10.90949531  4.76631482  11.41162342  1
  Mo  Mo82  1  8.27813350  0.99322470  11.24540581  1
  Mo  Mo83  1  11.44002141  0.98160833  11.01663318  1
  Mo  Mo84  1  7.90791703  4.64693404  7.68152746  1
  Mo  Mo85  1  11.64496355  1.24299793  8.08457041  1
  Mo  Mo86  1  8.08752936  4.50827042  11.78099589  1
  Mo  Mo87  1  11.12873574  5.20002959  7.49526245  1
  Mo  Mo88  1  12.63114833  6.09223290  9.78575900  1
  Mo  Mo89  1  6.46543811  5.92605501  9.54903296  1
  Mo  Mo90  1  9.87091326  2.52704387  12.27101017  1
  Mo  Mo91  1  12.71852676  3.12972669  6.26090307  1
  Mo  Mo92  1  12.33058638  3.16135173  9.62978850  1
  Mo  Mo93  1  6.58286281  2.61313149  12.23298069  1
  Mo  Mo94  1  9.62159677  -0.04850546  8.74870608  1
  Mo  Mo95  1  6.55566627  2.76348197  6.61862839  1
  Mo  Mo96  1  9.22069856  0.06289609  6.43368399  1
  Mo  Mo97  1  11.23984536  10.92518371  4.73498767  1
  Mo  Mo98  1  7.94230243  8.30721662  1.92178935  1
  Mo  Mo99  1  9.73107798  9.38912049  3.17652380  1
  Mo  Mo100  1  7.42670017  8.08624847  4.44280610  1
  Mo  Mo101  1  11.23676726  8.01408183  1.65579153  1
  Mo  Mo102  1  8.31880419  11.41331141  1.82529576  1
  Mo  Mo103  1  11.38322543  7.79315340  4.60904357  1
  Mo  Mo104  1  7.87256849  11.23646938  4.63083853  1
  Mo  Mo105  1  11.04860574  11.39454491  1.59407058  1
  Mo  Mo106  1  9.41679364  6.49893979  3.30755173  1
  Mo  Mo107  1  9.52950189  12.56819614  0.01375684  1
  Mo  Mo108  1  9.42406194  9.47357969  6.05384597  1
  Mo  Mo109  1  9.53660139  6.61736736  0.10361692  1
  Mo  Mo110  1  6.45621372  6.73818790  -0.02975891  1
  Mo  Mo111  1  6.47866402  12.72696672  3.24398392  1
  Mo  Mo112  1  9.73587386  9.66468030  0.24917350  1
  Mo  Mo113  1  12.70323554  9.33985097  6.05734111  1
  Mo  Mo114  1  10.87682769  11.27161934  11.24153335  1
  Mo  Mo115  1  8.08873081  8.03938186  8.16675578  1
  Mo  Mo116  1  11.14551637  7.69500161  7.82122373  1
  Mo  Mo117  1  7.69433634  7.98735197  11.31947889  1
  Mo  Mo118  1  10.94792196  10.89509772  7.74756768  1
  Mo  Mo119  1  8.00339783  10.64736001  8.06474146  1
  Mo  Mo120  1  9.27796122  9.37265760  9.82698574  1
  Mo  Mo121  1  7.36801761  10.90760873  11.06776942  1
  Mo  Mo122  1  11.07481927  8.64810173  11.53574051  1
  Mo  Mo123  1  6.48821608  12.80699743  9.39955626  1
  Mo  Mo124  1  6.30503911  6.62834924  6.49690427  1
  Mo  Mo125  1  12.48131417  9.80578654  9.35036617  1
  Mo  Mo126  1  9.29990513  6.24276211  9.87179697  1
  Mo  Mo127  1  8.97971281  6.60295985  6.44488432  1
