# generated using pymatgen
data_Mo
_symmetry_space_group_name_H-M   'P 1'
_cell_length_a   12.88523781
_cell_length_b   13.00725645
_cell_length_c   12.86145962
_cell_angle_alpha   90.00000000
_cell_angle_beta   90.00000000
_cell_angle_gamma   90.00000000
_symmetry_Int_Tables_number   1
_chemical_formula_structural   Mo
_chemical_formula_sum   Mo128
_cell_volume   2155.60111561
_cell_formula_units_Z   128
loop_
 _symmetry_equiv_pos_site_id
 _symmetry_equiv_pos_as_xyz
  1  'x, y, z'
loop_
 _atom_site_type_symbol
 _atom_site_label
 _atom_site_symmetry_multiplicity
 _atom_site_fract_x
 _atom_site_fract_y
 _atom_site_fract_z
 _atom_site_occupancy
  Mo  Mo0  1  0.72786831  5.32328283  2.80411294  1
  Mo  Mo1  1  2.11558082  2.18392465  2.23560701  1
  Mo  Mo2  1  3.27407983  -0.42723189  0.79415379  1
  Mo  Mo3  1  3.92962660  3.69332752  1.11437291  1
  Mo  Mo4  1  5.89282142  1.26289639  1.85393205  1
  Mo  Mo5  1  2.10959341  4.88526864  0.57726364  1
  Mo  Mo6  1  2.48058436  1.51175612  4.84933426  1
  Mo  Mo7  1  1.78905357  4.90394578  5.58321381  1
  Mo  Mo8  1  3.17224424  4.31061643  3.53894571  1
  Mo  Mo9  1  3.82712574  -0.50256898  3.58237676  1
  Mo  Mo10  1  4.77939180  1.60525105  4.41445776  1
  Mo  Mo11  1  5.63473730  3.95198754  3.31117595  1
  Mo  Mo12  1  4.90850336  3.29059237  8.66129786  1
  Mo  Mo13  1  1.04756812  4.76213456  11.16100618  1
  Mo  Mo14  1  5.52526602  2.14311495  11.58449371  1
  Mo  Mo15  1  2.72193750  1.26183394  7.45260589  1
  Mo  Mo16  1  0.11865892  1.52737502  8.80413181  1
  Mo  Mo17  1  4.80503935  0.14004479  8.70404379  1
  Mo  Mo18  1  0.36074881  5.73603670  7.79431514  1
  Mo  Mo19  1  1.69321531  3.84310209  8.40193285  1
  Mo  Mo20  1  4.10981483  3.18391125  6.47494051  1
  Mo  Mo21  1  5.47318649  4.78183442  11.56562791  1
  Mo  Mo22  1  2.88701323  1.46362848  9.99370975  1
  Mo  Mo23  1  3.34400244  3.74737306  11.23785949  1
  Mo  Mo24  1  0.26361776  2.44267404  6.63274795  1
  Mo  Mo25  1  3.59310048  5.95817651  10.19934695  1
  Mo  Mo26  1  2.87080850  5.97951472  7.88004530  1
  Mo  Mo27  1  0.87584269  2.48380148  11.36485610  1
  Mo  Mo28  1  6.43948274  5.06276601  7.04288047  1
  Mo  Mo29  1  3.15949493  1.65892921  12.30784812  1
  Mo  Mo30  1  5.94406688  0.94404553  6.73156501  1
  Mo  Mo31  1  6.00574811  7.71691572  1.17315476  1
  Mo  Mo32  1  0.99483325  7.72914870  1.14031835  1
  Mo  Mo33  1  3.21370928  8.66655049  1.35451466  1
  Mo  Mo34  1  0.77765912  9.50111383  3.03470264  1
  Mo  Mo35  1  0.29788996  11.37587770  0.51629831  1
  Mo  Mo36  1  6.56122671  12.30069898  3.69823262  1
  Mo  Mo37  1  0.56677822  12.79835888  5.38764499  1
  Mo  Mo38  1  5.19642523  10.55928652  1.92898814  1
  Mo  Mo39  1  1.03394503  12.44864655  2.94298508  1
  Mo  Mo40  1  1.92727036  7.44897174  3.56055201  1
  Mo  Mo41  1  2.71320958  9.82949787  4.93846026  1
  Mo  Mo42  1  2.79248565  10.69343227  2.26087725  1
  Mo  Mo43  1  4.94193554  8.95906966  4.45198084  1
  Mo  Mo44  1  2.72011049  11.93122722  6.31041089  1
  Mo  Mo45  1  5.17214793  11.74822898  5.88008204  1
  Mo  Mo46  1  4.08027496  6.31914874  5.54057711  1
  Mo  Mo47  1  3.67718236  5.95971556  2.17071859  1
  Mo  Mo48  1  1.93521386  10.17799881  11.73591656  1
  Mo  Mo49  1  1.75696185  11.42860264  8.74398963  1
  Mo  Mo50  1  4.20546443  10.57477633  8.06417549  1
  Mo  Mo51  1  0.88713636  8.04896370  6.25274113  1
  Mo  Mo52  1  3.85631808  12.41687258  10.97790865  1
  Mo  Mo53  1  0.76312749  12.69946238  11.26864053  1
  Mo  Mo54  1  4.37192035  10.12785550  12.44656139  1
  Mo  Mo55  1  3.67145312  8.17050908  6.95743826  1
  Mo  Mo56  1  6.11915142  10.71140443  9.65118629  1
  Mo  Mo57  1  3.85566274  8.75460412  10.20024059  1
  Mo  Mo58  1  4.18813768  6.63036490  12.80074192  1
  Mo  Mo59  1  0.59044884  10.64348755  6.30577388  1
  Mo  Mo60  1  1.82289285  7.34680848  11.67455307  1
  Mo  Mo61  1  1.78956989  8.39918242  9.16564022  1
  Mo  Mo62  1  6.35462637  9.72304512  6.71050482  1
  Mo  Mo63  1  5.74012760  7.49320707  8.31398844  1
  Mo  Mo64  1  5.63585932  12.71405855  12.28381906  1
  Mo  Mo65  1  7.63644813  1.41670229  4.42393037  1
  Mo  Mo66  1  9.04448208  4.94278947  0.45242269  1
  Mo  Mo67  1  8.86274487  5.64406097  5.15251757  1
  Mo  Mo68  1  12.94958314  3.49469052  1.03584154  1
  Mo  Mo69  1  9.79236203  1.30713172  3.62330562  1
  Mo  Mo70  1  11.07551433  1.33478501  5.88401407  1
  Mo  Mo71  1  12.94461846  1.18092946  0.33335071  1
  Mo  Mo72  1  7.79274630  2.92656190  1.98035276  1
  Mo  Mo73  1  11.99447729  3.68808481  4.20629850  1
  Mo  Mo74  1  12.56918908  1.51242139  3.22012365  1
  Mo  Mo75  1  6.34989999  5.21592651  1.14732848  1
  Mo  Mo76  1  8.93128729  3.34221515  5.49905249  1
  Mo  Mo77  1  9.89505155  4.69297651  3.13903051  1
  Mo  Mo78  1  9.33585937  0.31733365  0.43382399  1
  Mo  Mo79  1  12.29245760  5.99404139  0.11446277  1
  Mo  Mo80  1  10.43854541  2.39374212  1.08830832  1
  Mo  Mo81  1  9.55416644  -0.18550938  8.14045289  1
  Mo  Mo82  1  6.89270872  0.08279931  9.68233471  1
  Mo  Mo83  1  11.51806624  4.60932159  9.28953887  1
  Mo  Mo84  1  8.81164834  4.62260709  7.90340910  1
  Mo  Mo85  1  8.06777985  5.32529849  10.78795985  1
  Mo  Mo86  1  11.04870504  4.26670877  6.99265773  1
  Mo  Mo87  1  10.39426043  3.60570085  11.61408322  1
  Mo  Mo88  1  8.53775667  1.21245520  11.13648065  1
  Mo  Mo89  1  7.43283652  3.19126891  9.69647413  1
  Mo  Mo90  1  8.29685036  2.11502477  7.53551611  1
  Mo  Mo91  1  10.14284885  2.56063492  8.60978430  1
  Mo  Mo92  1  11.04532905  1.06190613  10.97314255  1
  Mo  Mo93  1  7.93993924  2.94270705  12.54486213  1
  Mo  Mo94  1  8.17305100  11.90948190  1.95050508  1
  Mo  Mo95  1  7.94384148  11.99944197  6.19969845  1
  Mo  Mo96  1  9.42251296  8.15141491  4.06370285  1
  Mo  Mo97  1  11.36445892  9.73716468  4.81525667  1
  Mo  Mo98  1  10.35265638  12.42769559  5.01558166  1
  Mo  Mo99  1  6.44726736  7.33139810  5.29388197  1
  Mo  Mo100  1  8.83899382  10.68489302  4.07901394  1
  Mo  Mo101  1  11.15653797  9.75340913  2.46279094  1
  Mo  Mo102  1  7.68203385  9.25360449  2.25068972  1
  Mo  Mo103  1  10.62958644  12.28918091  1.92222624  1
  Mo  Mo104  1  11.92963852  6.24951408  5.46333656  1
  Mo  Mo105  1  9.85076657  9.28703667  0.20684560  1
  Mo  Mo106  1  12.49769763  7.37983356  3.31209938  1
  Mo  Mo107  1  9.96948209  6.95738862  1.95262004  1
  Mo  Mo108  1  11.96339837  8.76769103  -0.15659903  1
  Mo  Mo109  1  7.64025108  6.20703625  3.30912057  1
  Mo  Mo110  1  8.51270488  8.94427490  6.26305774  1
  Mo  Mo111  1  7.89419465  7.30292067  8.31216144  1
  Mo  Mo112  1  7.34532900  10.46336883  12.71068256  1
  Mo  Mo113  1  10.09856387  9.33649485  9.56283478  1
  Mo  Mo114  1  10.10263491  6.87446847  11.92179432  1
  Mo  Mo115  1  10.20391446  6.64965766  9.16011949  1
  Mo  Mo116  1  12.58785629  11.91583670  8.32001557  1
  Mo  Mo117  1  11.01017909  11.48758308  11.99288859  1
  Mo  Mo118  1  7.80326150  9.00891508  10.69492168  1
  Mo  Mo119  1  8.83214256  11.64277909  10.72024156  1
  Mo  Mo120  1  12.43722778  8.92072244  8.34601065  1
  Mo  Mo121  1  7.99330959  10.78656974  8.17486808  1
  Mo  Mo122  1  12.69380264  7.03418235  10.36834478  1
  Mo  Mo123  1  10.30916575  7.84381304  7.00210056  1
  Mo  Mo124  1  10.66384276  10.85786260  7.44180274  1
  Mo  Mo125  1  6.26819122  7.25092058  10.92051690  1
  Mo  Mo126  1  12.20636999  10.39704065  10.30717988  1
  Mo  Mo127  1  7.98209934  7.52863506  12.96288849  1
