# generated using pymatgen
data_Mo
_symmetry_space_group_name_H-M   'P 1'
_cell_length_a   12.88523781
_cell_length_b   13.00725645
_cell_length_c   12.86145962
_cell_angle_alpha   90.00000000
_cell_angle_beta   90.00000000
_cell_angle_gamma   90.00000000
_symmetry_Int_Tables_number   1
_chemical_formula_structural   Mo
_chemical_formula_sum   Mo128
_cell_volume   2155.60111561
_cell_formula_units_Z   128
loop_
 _symmetry_equiv_pos_site_id
 _symmetry_equiv_pos_as_xyz
  1  'x, y, z'
loop_
 _atom_site_type_symbol
 _atom_site_label
 _atom_site_symmetry_multiplicity
 _atom_site_fract_x
 _atom_site_fract_y
 _atom_site_fract_z
 _atom_site_occupancy
  Mo  Mo0  1  1.68980954  0.40247599  0.21538585  1
  Mo  Mo1  1  1.79973757  3.22871255  0.75964725  1
  Mo  Mo2  1  6.19425715  0.05004967  2.38371345  1
  Mo  Mo3  1  1.51950103  5.72368457  2.40130829  1
  Mo  Mo4  1  5.95038196  4.54045150  4.72401571  1
  Mo  Mo5  1  0.31123106  3.48408596  3.61148967  1
  Mo  Mo6  1  0.33454918  5.80854094  4.97410669  1
  Mo  Mo7  1  4.65579103  4.15483458  0.13438207  1
  Mo  Mo8  1  3.64428637  5.94417610  4.86650214  1
  Mo  Mo9  1  1.57050819  1.31541281  4.46809620  1
  Mo  Mo10  1  3.77073686  3.05300247  3.48991449  1
  Mo  Mo11  1  4.01306308  0.28980745  3.77000209  1
  Mo  Mo12  1  4.44449409  2.24089936  1.51751516  1
  Mo  Mo13  1  3.87310864  5.23266742  2.09946545  1
  Mo  Mo14  1  3.98371187  2.31322488  5.87816567  1
  Mo  Mo15  1  -0.08956875  1.64440254  1.44613293  1
  Mo  Mo16  1  1.96223167  5.88751913  6.84429312  1
  Mo  Mo17  1  5.11171780  4.97369959  9.46514966  1
  Mo  Mo18  1  4.97791957  2.39075338  8.87451117  1
  Mo  Mo19  1  0.99639216  5.53975297  12.10767208  1
  Mo  Mo20  1  0.62950601  2.24601299  11.62659422  1
  Mo  Mo21  1  0.31682725  0.74626743  6.66214881  1
  Mo  Mo22  1  3.22760046  3.82049292  7.68384100  1
  Mo  Mo23  1  2.69342035  3.58712300  10.64656566  1
  Mo  Mo24  1  2.02483633  1.75936476  8.70859144  1
  Mo  Mo25  1  0.22828013  3.60590936  9.12765046  1
  Mo  Mo26  1  0.79036871  6.07627641  9.38670766  1
  Mo  Mo27  1  5.55115188  2.26645755  11.08345782  1
  Mo  Mo28  1  4.88843611  6.24185854  7.06317610  1
  Mo  Mo29  1  3.47098912  0.03737215  10.85835906  1
  Mo  Mo30  1  5.54990078  0.05092812  8.71278163  1
  Mo  Mo31  1  3.30711484  5.80790547  9.03315267  1
  Mo  Mo32  1  0.35355399  3.18007851  6.49021188  1
  Mo  Mo33  1  2.29659318  9.99341187  2.54102442  1
  Mo  Mo34  1  5.74236171  10.23052516  1.83541378  1
  Mo  Mo35  1  6.28327393  12.81136635  4.96077155  1
  Mo  Mo36  1  -0.05239409  11.20072365  3.95648554  1
  Mo  Mo37  1  3.93211887  8.34220771  1.52308553  1
  Mo  Mo38  1  2.27219673  12.45172466  2.36324903  1
  Mo  Mo39  1  4.61645088  10.61538744  4.72864280  1
  Mo  Mo40  1  2.21155808  9.67215711  5.55015895  1
  Mo  Mo41  1  1.50629497  8.13172498  3.69945394  1
  Mo  Mo42  1  1.23476649  7.68997735  1.00216113  1
  Mo  Mo43  1  0.03735835  11.55252114  1.70411776  1
  Mo  Mo44  1  4.22460825  8.18992100  3.96327723  1
  Mo  Mo45  1  3.11830792  10.78160505  0.18999745  1
  Mo  Mo46  1  5.54115301  8.60245643  6.26659259  1
  Mo  Mo47  1  5.23008579  6.50060793  0.34613278  1
  Mo  Mo48  1  4.68542026  12.61704863  0.14390732  1
  Mo  Mo49  1  2.01039903  11.83163566  6.12459271  1
  Mo  Mo50  1  6.28016604  7.67922384  3.07337753  1
  Mo  Mo51  1  4.24696919  12.60046658  6.42823277  1
  Mo  Mo52  1  4.73679481  7.92130182  9.32107454  1
  Mo  Mo53  1  0.69435272  7.86492287  6.91230929  1
  Mo  Mo54  1  1.73112564  10.28612962  8.24527722  1
  Mo  Mo55  1  3.99468382  7.71166309  11.93787989  1
  Mo  Mo56  1  5.50721443  9.84145283  11.97680301  1
  Mo  Mo57  1  3.20280683  12.35044511  8.75220122  1
  Mo  Mo58  1  3.35959155  9.88011778  10.52314362  1
  Mo  Mo59  1  3.28833841  8.31088055  7.20299152  1
  Mo  Mo60  1  2.29642439  7.78808943  10.74913602  1
  Mo  Mo61  1  1.42455642  11.85338098  10.78150576  1
  Mo  Mo62  1  0.52546312  9.67452030  12.43633414  1
  Mo  Mo63  1  5.47489434  10.62045142  7.98017304  1
  Mo  Mo64  1  -0.08740177  11.77315169  8.00809442  1
  Mo  Mo65  1  8.53642613  3.02951951  4.47626807  1
  Mo  Mo66  1  7.94443725  6.19661041  0.75516613  1
  Mo  Mo67  1  12.34975005  4.70007601  0.93609310  1
  Mo  Mo68  1  10.53505886  4.70419670  5.17626861  1
  Mo  Mo69  1  9.13518685  5.21449668  2.72560143  1
  Mo  Mo70  1  12.42769559  0.64440999  3.53468601  1
  Mo  Mo71  1  8.70912762  1.77820077  1.08026553  1
  Mo  Mo72  1  10.62621045  3.03569558  2.39869687  1
  Mo  Mo73  1  6.60807347  2.13937158  3.52515382  1
  Mo  Mo74  1  10.98664649  2.01059761  4.96888385  1
  Mo  Mo75  1  9.98685848  0.15547106  1.90149372  1
  Mo  Mo76  1  7.25955913  3.67869163  0.73888097  1
  Mo  Mo77  1  6.56747229  5.09615848  2.47311748  1
  Mo  Mo78  1  9.58814473  -0.14295012  5.24036268  1
  Mo  Mo79  1  12.14689308  -0.02361074  -0.02589887  1
  Mo  Mo80  1  7.05147930  0.51716117  12.71435643  1
  Mo  Mo81  1  7.06219309  4.98364881  11.29346395  1
  Mo  Mo82  1  7.20467951  5.93921142  8.38389119  1
  Mo  Mo83  1  8.01548187  2.53454055  11.29346395  1
  Mo  Mo84  1  9.59219592  5.26521589  9.22174115  1
  Mo  Mo85  1  10.61836625  2.13877582  9.75126438  1
  Mo  Mo86  1  10.86808984  2.27566208  12.52202458  1
  Mo  Mo87  1  10.55243525  0.29971101  7.32204464  1
  Mo  Mo88  1  11.94572409  4.66393311  10.97214962  1
  Mo  Mo89  1  7.39602835  3.71199473  9.07128144  1
  Mo  Mo90  1  12.00053420  5.22429696  7.41857795  1
  Mo  Mo91  1  10.69799978  3.15873037  7.52538815  1
  Mo  Mo92  1  12.75387531  0.41197740  9.80129846  1
  Mo  Mo93  1  8.05309431  1.37753093  8.60974458  1
  Mo  Mo94  1  9.99807867  0.22749174  10.87136654  1
  Mo  Mo95  1  9.55479199  4.52940011  12.63849606  1
  Mo  Mo96  1  6.87905584  2.46137104  6.73980639  1
  Mo  Mo97  1  8.34217792  5.01978178  6.35065462  1
  Mo  Mo98  1  7.57195689  7.12847162  5.55477610  1
  Mo  Mo99  1  8.28942319  9.20225973  6.07561114  1
  Mo  Mo100  1  10.22784423  10.90165111  0.98804057  1
  Mo  Mo101  1  10.24998672  7.43705650  5.42383753  1
  Mo  Mo102  1  8.62243431  8.70402393  0.94349445  1
  Mo  Mo103  1  6.87013927  9.75001328  4.16993715  1
  Mo  Mo104  1  9.06686287  8.13777196  3.39579402  1
  Mo  Mo105  1  10.68300644  6.54882493  0.72684062  1
  Mo  Mo106  1  11.79916663  6.45183487  3.22294359  1
  Mo  Mo107  1  11.14184251  11.13032444  5.83414878  1
  Mo  Mo108  1  10.02796606  10.18663736  3.45935190  1
  Mo  Mo109  1  12.33227437  8.78515679  4.68120028  1
  Mo  Mo110  1  8.45530320  11.96717153  3.30903121  1
  Mo  Mo111  1  11.77483968  8.90721850  1.86165710  1
  Mo  Mo112  1  8.13868546  11.09179849  0.56222859  1
  Mo  Mo113  1  9.27474411  6.86201704  11.23587361  1
  Mo  Mo114  1  9.92096720  9.52405067  9.54606407  1
  Mo  Mo115  1  12.63204197  9.08599676  9.50363589  1
  Mo  Mo116  1  12.38152403  7.61261765  11.66988627  1
  Mo  Mo117  1  7.19364799  8.96888980  9.18462517  1
  Mo  Mo118  1  6.69431996  7.59413909  11.54209531  1
  Mo  Mo119  1  7.48185781  11.91593599  6.69535261  1
  Mo  Mo120  1  8.24973551  9.56937823  11.57426646  1
  Mo  Mo121  1  8.96746990  11.69401463  9.05199861  1
  Mo  Mo122  1  11.74654098  11.39672937  10.70187223  1
  Mo  Mo123  1  10.78587468  9.05329936  11.72529214  1
  Mo  Mo124  1  9.61125037  7.28810606  7.57438958  1
  Mo  Mo125  1  11.43565249  7.16711672  9.65974540  1
  Mo  Mo126  1  6.47338160  11.37597699  10.79977580  1
  Mo  Mo127  1  11.30865588  9.18237120  7.31748706  1
