# generated using pymatgen
data_Mo
_symmetry_space_group_name_H-M   'P 1'
_cell_length_a   12.88523781
_cell_length_b   13.00725645
_cell_length_c   12.86145962
_cell_angle_alpha   90.00000000
_cell_angle_beta   90.00000000
_cell_angle_gamma   90.00000000
_symmetry_Int_Tables_number   1
_chemical_formula_structural   Mo
_chemical_formula_sum   Mo128
_cell_volume   2155.60111561
_cell_formula_units_Z   128
loop_
 _symmetry_equiv_pos_site_id
 _symmetry_equiv_pos_as_xyz
  1  'x, y, z'
loop_
 _atom_site_type_symbol
 _atom_site_label
 _atom_site_symmetry_multiplicity
 _atom_site_fract_x
 _atom_site_fract_y
 _atom_site_fract_z
 _atom_site_occupancy
  Mo  Mo0  1  5.03961073  4.26641089  1.77354390  1
  Mo  Mo1  1  2.31642213  0.10650140  3.02651092  1
  Mo  Mo2  1  0.98353065  2.11245307  1.23075502  1
  Mo  Mo3  1  1.84313883  5.25028212  4.82705276  1
  Mo  Mo4  1  0.02655460  3.96420066  3.27943176  1
  Mo  Mo5  1  3.94442136  1.35271744  1.58941371  1
  Mo  Mo6  1  1.15940259  2.36242489  5.14246905  1
  Mo  Mo7  1  4.85319679  4.43062277  4.72793782  1
  Mo  Mo8  1  2.81465793  3.13683612  3.28462482  1
  Mo  Mo9  1  4.04409235  1.30572175  4.78020601  1
  Mo  Mo10  1  1.60349355  4.88317355  1.43450564  1
  Mo  Mo11  1  6.02139679  2.27499681  3.15412315  1
  Mo  Mo12  1  3.43933430  6.15930578  2.91975036  1
  Mo  Mo13  1  6.02062230  2.43100703  6.18263979  1
  Mo  Mo14  1  0.05754724  4.01653836  0.00296682  1
  Mo  Mo15  1  3.38704625  3.26313767  12.66619900  1
  Mo  Mo16  1  4.11068862  1.45063094  11.27142075  1
  Mo  Mo17  1  5.08129421  4.56528485  8.17726105  1
  Mo  Mo18  1  1.81574371  5.44101534  8.04207272  1
  Mo  Mo19  1  2.33985544  -0.09105816  9.45393940  1
  Mo  Mo20  1  4.05542176  1.29196957  7.99695367  1
  Mo  Mo21  1  4.92749824  4.47843267  10.95556757  1
  Mo  Mo22  1  3.10038541  3.39570466  9.40763876  1
  Mo  Mo23  1  3.35873762  3.43973147  6.46394870  1
  Mo  Mo24  1  2.25008403  0.31721449  6.53131946  1
  Mo  Mo25  1  0.51938535  2.22141794  9.86952315  1
  Mo  Mo26  1  5.96303197  2.45835251  9.50040884  1
  Mo  Mo27  1  1.97275679  0.53755212  12.52291822  1
  Mo  Mo28  1  0.04118503  4.23717883  6.42471777  1
  Mo  Mo29  1  3.83555577  6.21647908  6.40544487  1
  Mo  Mo30  1  0.51155605  12.14381497  5.06836618  1
  Mo  Mo31  1  1.58100353  9.99976666  3.17483581  1
  Mo  Mo32  1  5.75591530  7.55977355  1.55148352  1
  Mo  Mo33  1  3.47495094  11.28224376  4.72141422  1
  Mo  Mo34  1  0.33894988  12.17102144  1.73973440  1
  Mo  Mo35  1  5.52551426  7.42338376  4.60446613  1
  Mo  Mo36  1  4.59142887  9.58282259  2.87557460  1
  Mo  Mo37  1  0.64259391  7.04345637  3.05473018  1
  Mo  Mo38  1  4.46337975  9.58047926  -0.07776313  1
  Mo  Mo39  1  2.67793054  8.35869046  1.34869605  1
  Mo  Mo40  1  3.03130680  11.26000198  1.39038946  1
  Mo  Mo41  1  5.32985607  12.55489079  3.12589395  1
  Mo  Mo42  1  2.40215229  8.00860082  4.76689072  1
  Mo  Mo43  1  0.70847427  6.97763460  0.00974436  1
  Mo  Mo44  1  4.03119410  6.56258704  0.32359709  1
  Mo  Mo45  1  3.30815742  11.40387851  11.12943080  1
  Mo  Mo46  1  0.34173805  12.32492664  7.88700579  1
  Mo  Mo47  1  2.47121104  8.01361515  11.29733640  1
  Mo  Mo48  1  2.70342916  8.11334572  8.25621938  1
  Mo  Mo49  1  3.64260831  6.50490734  9.76725066  1
  Mo  Mo50  1  3.26237311  11.02447738  8.03076317  1
  Mo  Mo51  1  5.23823780  12.32353652  9.55858501  1
  Mo  Mo52  1  0.34536922  12.23754820  11.14303403  1
  Mo  Mo53  1  0.79117498  7.00245802  9.64515916  1
  Mo  Mo54  1  4.45551569  9.27730589  9.76825353  1
  Mo  Mo55  1  5.50428527  7.70373945  7.90298214  1
  Mo  Mo56  1  5.85505010  7.38520534  11.48986683  1
  Mo  Mo57  1  0.13314090  7.20651645  6.99431593  1
  Mo  Mo58  1  1.51666123  9.82471191  6.50760813  1
  Mo  Mo59  1  1.46485972  10.19150275  12.62856669  1
  Mo  Mo60  1  5.28206602  12.50772629  6.61681131  1
  Mo  Mo61  1  5.06103830  12.70839881  12.64941836  1
  Mo  Mo62  1  4.53497049  9.50382455  6.50932591  1
  Mo  Mo63  1  7.00670779  0.66650085  4.87197322  1
  Mo  Mo64  1  11.83699752  5.98666387  1.61434635  1
  Mo  Mo65  1  10.46634764  3.03932973  1.34272850  1
  Mo  Mo66  1  8.82857791  1.83709185  3.16027935  1
  Mo  Mo67  1  9.65901063  4.92748831  3.19606479  1
  Mo  Mo68  1  11.20757492  2.65118083  4.73859203  1
  Mo  Mo69  1  12.15473728  1.09987603  3.04588311  1
  Mo  Mo70  1  7.27932850  0.68825708  1.66078600  1
  Mo  Mo71  1  7.86916271  3.60363554  4.72030213  1
  Mo  Mo72  1  6.84195972  5.53712169  3.07272219  1
  Mo  Mo73  1  11.78625845  6.04315204  4.77775345  1
  Mo  Mo74  1  7.86928186  3.75008378  1.63872294  1
  Mo  Mo75  1  10.39555125  -0.16651748  4.69716671  1
  Mo  Mo76  1  10.16985673  -0.12774727  1.68822084  1
  Mo  Mo77  1  6.42049779  2.57399985  0.04065153  1
  Mo  Mo78  1  6.79635414  5.56036633  0.05886020  1
  Mo  Mo79  1  6.97397066  5.57350289  6.15880931  1
  Mo  Mo80  1  9.24630640  1.45408636  6.16259240  1
  Mo  Mo81  1  11.54487553  2.13783253  7.47261356  1
  Mo  Mo82  1  7.26467275  0.66188170  11.03013712  1
  Mo  Mo83  1  7.95790147  3.45959021  7.95253961  1
  Mo  Mo84  1  6.75725229  5.74864700  9.29063110  1
  Mo  Mo85  1  9.23726075  1.66935504  9.39877184  1
  Mo  Mo86  1  7.88806823  3.92231859  11.24093759  1
  Mo  Mo87  1  10.60049339  5.07391669  9.03860389  1
  Mo  Mo88  1  11.66700675  6.19571677  11.13945946  1
  Mo  Mo89  1  11.08147195  2.92289797  11.05595348  1
  Mo  Mo90  1  7.20129360  0.60084588  7.83402268  1
  Mo  Mo91  1  9.93592083  5.09332861  6.33742870  1
  Mo  Mo92  1  9.81028454  4.82395480  12.73818691  1
  Mo  Mo93  1  8.98208593  1.59035700  12.47704455  1
  Mo  Mo94  1  11.88565142  1.04367581  12.48895979  1
  Mo  Mo95  1  8.44627741  6.81898316  1.60678017  1
  Mo  Mo96  1  9.19082110  9.64865430  4.69901357  1
  Mo  Mo97  1  8.17892919  11.76600254  3.25123236  1
  Mo  Mo98  1  9.41605887  9.92553471  1.56093628  1
  Mo  Mo99  1  12.34935288  8.92833827  1.38080763  1
  Mo  Mo100  1  8.55243227  6.68534381  4.55421360  1
  Mo  Mo101  1  7.51428712  8.57401872  3.11660007  1
  Mo  Mo102  1  12.71525007  9.15537325  4.65802514  1
  Mo  Mo103  1  11.43912777  10.72758930  3.19565769  1
  Mo  Mo104  1  10.41243117  7.87956869  2.94739372  1
  Mo  Mo105  1  6.54668019  10.38949433  4.73809556  1
  Mo  Mo106  1  10.54320094  7.86983791  6.11919113  1
  Mo  Mo107  1  6.70919415  10.57715938  1.61416762  1
  Mo  Mo108  1  7.47890878  8.51762984  6.02123792  1
  Mo  Mo109  1  11.36932431  10.90721155  0.06806562  1
  Mo  Mo110  1  11.54815222  10.67238201  6.24285148  1
  Mo  Mo111  1  10.49832020  7.85567863  0.05239548  1
  Mo  Mo112  1  8.20764492  11.58062125  6.18340435  1
  Mo  Mo113  1  8.60154293  11.53911650  9.61059503  1
  Mo  Mo114  1  9.86085481  9.81793016  11.16994261  1
  Mo  Mo115  1  11.39990677  7.78157576  8.95455180  1
  Mo  Mo116  1  6.41647640  10.46495753  11.39732513  1
  Mo  Mo117  1  10.35533731  12.82079925  10.91058754  1
  Mo  Mo118  1  8.68610142  6.61859860  7.86380085  1
  Mo  Mo119  1  11.99139918  10.97056092  9.36356230  1
  Mo  Mo120  1  7.57370445  8.52966423  9.64985575  1
  Mo  Mo121  1  9.64365983  9.63982709  7.77939130  1
  Mo  Mo122  1  6.63613386  10.53754120  8.09291108  1
  Mo  Mo123  1  8.80089484  6.93931717  11.03927214  1
  Mo  Mo124  1  7.65990129  8.47457610  12.66212795  1
  Mo  Mo125  1  10.31274032  12.67225591  7.71543625  1
  Mo  Mo126  1  12.69827085  8.87557361  11.21690852  1
  Mo  Mo127  1  8.43545440  11.76113715  12.65607104  1
