# generated using pymatgen
data_Mo
_symmetry_space_group_name_H-M   'P 1'
_cell_length_a   11.91524094
_cell_length_b   11.91524094
_cell_length_c   11.91524094
_cell_angle_alpha   90.00000000
_cell_angle_beta   90.00000000
_cell_angle_gamma   90.00000000
_symmetry_Int_Tables_number   1
_chemical_formula_structural   Mo
_chemical_formula_sum   Mo128
_cell_volume   1691.64210278
_cell_formula_units_Z   128
loop_
 _symmetry_equiv_pos_site_id
 _symmetry_equiv_pos_as_xyz
  1  'x, y, z'
loop_
 _atom_site_type_symbol
 _atom_site_label
 _atom_site_symmetry_multiplicity
 _atom_site_fract_x
 _atom_site_fract_y
 _atom_site_fract_z
 _atom_site_occupancy
  Mo  Mo0  1  2.53126385  1.72808725  4.54420480  1
  Mo  Mo1  1  5.16420443  4.47018137  2.15319326  1
  Mo  Mo2  1  4.52973771  1.67120191  0.21444058  1
  Mo  Mo3  1  2.11444887  0.01885269  3.05017260  1
  Mo  Mo4  1  5.88879009  3.72891437  5.31805005  1
  Mo  Mo5  1  0.98569327  1.97666897  2.28655459  1
  Mo  Mo6  1  1.86321601  4.57635609  1.98500963  1
  Mo  Mo7  1  1.73198949  3.45720716  4.94516259  1
  Mo  Mo8  1  3.56986576  4.31166894  4.00113791  1
  Mo  Mo9  1  3.10945092  2.82579868  1.58492563  1
  Mo  Mo10  1  4.99387606  2.69251678  3.43142059  1
  Mo  Mo11  1  1.27118741  3.07798476  0.11739293  1
  Mo  Mo12  1  5.23939953  0.66594877  2.06170407  1
  Mo  Mo13  1  2.44351803  0.03467514  0.89061858  1
  Mo  Mo14  1  5.84700731  5.80236488  4.27204084  1
  Mo  Mo15  1  4.46528619  0.16880123  3.94331920  1
  Mo  Mo16  1  4.48217604  4.20926738  0.16134031  1
  Mo  Mo17  1  3.41916775  2.53540440  6.56817727  1
  Mo  Mo18  1  0.52107434  1.15425918  11.19893637  1
  Mo  Mo19  1  1.02476037  5.51178194  11.42939699  1
  Mo  Mo20  1  0.70461770  1.71568547  6.05663612  1
  Mo  Mo21  1  5.42922918  0.66372757  10.13738769  1
  Mo  Mo22  1  5.74766399  3.08449842  7.67340523  1
  Mo  Mo23  1  3.96507444  2.95386766  9.11940908  1
  Mo  Mo24  1  1.21725108  1.38771846  8.36623678  1
  Mo  Mo25  1  0.52800404  3.62987886  8.26680409  1
  Mo  Mo26  1  2.33192187  3.02672936  10.26130620  1
  Mo  Mo27  1  3.70362427  0.75065025  7.98535617  1
  Mo  Mo28  1  4.03853190  5.75331380  6.21374850  1
  Mo  Mo29  1  5.18027015  5.20289918  7.97070042  1
  Mo  Mo30  1  2.06250835  4.52098994  7.04294005  1
  Mo  Mo31  1  1.98570469  5.75755364  9.27292704  1
  Mo  Mo32  1  2.24025395  8.28863877  2.82089357  1
  Mo  Mo33  1  0.65282711  6.03425533  4.61536858  1
  Mo  Mo34  1  4.96120844  8.05954840  2.78093780  1
  Mo  Mo35  1  4.53133634  9.21083870  5.00008192  1
  Mo  Mo36  1  2.23237997  7.52976700  0.39453944  1
  Mo  Mo37  1  3.85675497  6.25279077  1.56868119  1
  Mo  Mo38  1  3.69043807  9.96382235  2.03956158  1
  Mo  Mo39  1  2.18606940  10.02786677  4.23067509  1
  Mo  Mo40  1  2.64884742  6.35466608  3.80760461  1
  Mo  Mo41  1  2.72818307  7.85462612  5.62274262  1
  Mo  Mo42  1  4.93146999  7.97237849  0.20195638  1
  Mo  Mo43  1  0.73651679  9.87311758  1.34808043  1
  Mo  Mo44  1  0.28832500  6.66856318  1.88196266  1
  Mo  Mo45  1  0.24502501  8.64157814  3.80818051  1
  Mo  Mo46  1  0.29395495  10.15535985  5.68238833  1
  Mo  Mo47  1  5.53793589  8.14159477  7.11869119  1
  Mo  Mo48  1  2.97254480  9.49055891  11.43813483  1
  Mo  Mo49  1  1.70557738  8.01336692  9.73005525  1
  Mo  Mo50  1  0.86194257  9.64797910  8.28985015  1
  Mo  Mo51  1  3.37612394  7.04736854  8.10837110  1
  Mo  Mo52  1  0.72944609  7.07248984  7.72315136  1
  Mo  Mo53  1  4.98255658  11.13797005  6.82305420  1
  Mo  Mo54  1  4.17299540  10.64875012  9.09082244  1
  Mo  Mo55  1  2.53144258  11.73542009  6.13139433  1
  Mo  Mo56  1  3.07360590  10.02101551  7.26191239  1
  Mo  Mo57  1  1.03420320  10.62213941  10.23687996  1
  Mo  Mo58  1  4.19700461  8.41461265  9.46787031  1
  Mo  Mo59  1  4.15796234  6.20898240  10.54230730  1
  Mo  Mo60  1  4.79737388  10.65004094  11.55599642  1
  Mo  Mo61  1  2.82523271  11.85884213  10.71219878  1
  Mo  Mo62  1  10.42365136  0.53224885  3.48979534  1
  Mo  Mo63  1  10.74943390  2.50717521  0.66305238  1
  Mo  Mo64  1  9.93155191  4.56299116  4.05300892  1
  Mo  Mo65  1  8.62914657  5.34846370  1.60965969  1
  Mo  Mo66  1  7.42505189  3.81152671  3.68989195  1
  Mo  Mo67  1  8.65855735  2.31017656  1.97617250  1
  Mo  Mo68  1  11.49036330  2.32761253  4.19489958  1
  Mo  Mo69  1  7.61767169  0.63195658  3.04720372  1
  Mo  Mo70  1  6.39339062  1.38055939  5.28752718  1
  Mo  Mo71  1  9.17571853  1.24198514  0.11306670  1
  Mo  Mo72  1  9.09262958  2.17916849  4.66102381  1
  Mo  Mo73  1  6.50479812  2.98028971  1.44778121  1
  Mo  Mo74  1  10.44638961  5.61414379  0.23200960  1
  Mo  Mo75  1  11.67594318  4.22626645  2.28861990  1
  Mo  Mo76  1  11.85745202  0.21500953  1.42477486  1
  Mo  Mo77  1  6.73462326  2.41391859  10.83323776  1
  Mo  Mo78  1  6.51341681  0.37423091  7.76223335  1
  Mo  Mo79  1  11.67763117  3.38447454  10.37380593  1
  Mo  Mo80  1  8.32998466  2.17771880  7.15452628  1
  Mo  Mo81  1  9.56451284  0.41547849  9.92392615  1
  Mo  Mo82  1  10.72987305  1.76960194  8.78471990  1
  Mo  Mo83  1  10.47637630  3.22503869  6.51974182  1
  Mo  Mo84  1  11.87006231  5.02741747  6.52606682  1
  Mo  Mo85  1  7.77515146  4.60080219  8.29496378  1
  Mo  Mo86  1  6.05920783  4.33664130  9.87443819  1
  Mo  Mo87  1  7.84685142  1.71888273  9.03048167  1
  Mo  Mo88  1  9.32758820  2.71356704  10.21195724  1
  Mo  Mo89  1  10.10859253  4.34481317  8.79507623  1
  Mo  Mo90  1  10.41014742  0.64810570  6.44000900  1
  Mo  Mo91  1  8.96831390  4.88356079  5.99244276  1
  Mo  Mo92  1  7.83152048  4.22242379  11.43406379  1
  Mo  Mo93  1  9.20319309  7.66436951  5.10328776  1
  Mo  Mo94  1  7.85603609  7.73050903  2.73387260  1
  Mo  Mo95  1  10.46277307  6.73399771  3.22952676  1
  Mo  Mo96  1  10.01178120  9.81645068  4.79441493  1
  Mo  Mo97  1  6.48972534  7.65851118  4.60290722  1
  Mo  Mo98  1  9.97871640  11.25305142  1.68369305  1
  Mo  Mo99  1  7.81980383  9.13704364  1.05688187  1
  Mo  Mo100  1  8.09075641  10.37450099  3.57220909  1
  Mo  Mo101  1  8.76836623  7.31625582  0.53273142  1
  Mo  Mo102  1  9.96124072  9.06582029  2.16880223  1
  Mo  Mo103  1  6.79004899  6.34423032  1.90723290  1
  Mo  Mo104  1  7.39298997  11.61954437  0.90731283  1
  Mo  Mo105  1  6.08621571  10.05348454  1.98845512  1
  Mo  Mo106  1  11.78367682  10.91148118  4.02813586  1
  Mo  Mo107  1  6.19620331  10.70931926  4.67130070  1
  Mo  Mo108  1  11.29832934  7.58426930  5.66466441  1
  Mo  Mo109  1  7.55124423  10.80354896  10.48938377  1
  Mo  Mo110  1  10.28553386  8.97479778  7.18477113  1
  Mo  Mo111  1  10.94682973  10.88536694  8.47099160  1
  Mo  Mo112  1  10.69730472  8.60561397  9.34711927  1
  Mo  Mo113  1  7.17043313  7.99981333  10.50606511  1
  Mo  Mo114  1  11.27291016  8.58307430  11.88148109  1
  Mo  Mo115  1  10.12070636  10.80910940  11.45739780  1
  Mo  Mo116  1  8.47461582  10.91247412  8.24584320  1
  Mo  Mo117  1  9.21498918  9.18387054  10.48431979  1
  Mo  Mo118  1  9.83913928  6.60656421  7.76087303  1
  Mo  Mo119  1  6.15299070  9.89707714  9.24113320  1
  Mo  Mo120  1  7.16021581  6.45200367  6.82921041  1
  Mo  Mo121  1  7.75362459  8.34138357  8.58310409  1
  Mo  Mo122  1  7.02262456  6.24826298  9.23468904  1
  Mo  Mo123  1  11.55927311  6.33851100  9.72799987  1
  Mo  Mo124  1  9.12763060  6.20265740  10.26110761  1
  Mo  Mo125  1  7.62068029  9.36765320  6.14248543  1
  Mo  Mo126  1  8.39513124  11.62927515  6.09958063  1
  Mo  Mo127  1  6.36935162  6.05558361  11.37855863  1
