# generated using pymatgen
data_Mo
_symmetry_space_group_name_H-M   'P 1'
_cell_length_a   11.91524094
_cell_length_b   11.91524094
_cell_length_c   11.91524094
_cell_angle_alpha   90.00000000
_cell_angle_beta   90.00000000
_cell_angle_gamma   90.00000000
_symmetry_Int_Tables_number   1
_chemical_formula_structural   Mo
_chemical_formula_sum   Mo128
_cell_volume   1691.64210278
_cell_formula_units_Z   128
loop_
 _symmetry_equiv_pos_site_id
 _symmetry_equiv_pos_as_xyz
  1  'x, y, z'
loop_
 _atom_site_type_symbol
 _atom_site_label
 _atom_site_symmetry_multiplicity
 _atom_site_fract_x
 _atom_site_fract_y
 _atom_site_fract_z
 _atom_site_occupancy
  Mo  Mo0  1  1.78571730  0.87706698  4.03674462  1
  Mo  Mo1  1  4.59049551  3.35757588  4.63679615  1
  Mo  Mo2  1  2.59791970  4.18052186  0.55099748  1
  Mo  Mo3  1  0.40770976  3.72745475  2.14269792  1
  Mo  Mo4  1  2.13016706  1.40405227  1.46306251  1
  Mo  Mo5  1  4.60886484  2.32656995  2.38719866  1
  Mo  Mo6  1  0.29517726  3.04959669  4.89687607  1
  Mo  Mo7  1  4.92168956  4.65254413  1.63450296  1
  Mo  Mo8  1  2.68010507  3.54713744  3.03340190  1
  Mo  Mo9  1  2.64445864  4.43106959  5.09322931  1
  Mo  Mo10  1  3.44638415  1.63447318  5.44289199  1
  Mo  Mo11  1  4.81766951  0.64304073  3.85214775  1
  Mo  Mo12  1  0.58356481  5.83039548  4.49158908  1
  Mo  Mo13  1  4.86067360  2.20536216  0.02902841  1
  Mo  Mo14  1  4.67605687  5.46333656  5.04131858  1
  Mo  Mo15  1  4.00653948  1.67563040  8.24970572  1
  Mo  Mo16  1  2.26344896  2.95050161  7.11725143  1
  Mo  Mo17  1  3.80299738  0.25316412  11.12615410  1
  Mo  Mo18  1  1.95607546  0.15353582  6.23314056  1
  Mo  Mo19  1  4.82548392  4.37681552  7.14398129  1
  Mo  Mo20  1  0.42352922  3.77354687  11.67167355  1
  Mo  Mo21  1  2.33385810  2.15920053  11.00094478  1
  Mo  Mo22  1  1.71986574  0.82432814  8.49878390  1
  Mo  Mo23  1  0.89591590  4.57232477  7.09111734  1
  Mo  Mo24  1  5.69899023  5.87737132  9.62540965  1
  Mo  Mo25  1  3.78106341  3.83709483  9.93889964  1
  Mo  Mo26  1  1.48584047  3.98621407  9.21822615  1
  Mo  Mo27  1  0.52086582  0.35923260  11.04880433  1
  Mo  Mo28  1  4.12016123  5.42641917  11.63801300  1
  Mo  Mo29  1  5.54535313  2.18639706  6.48971541  1
  Mo  Mo30  1  0.12962193  1.81521745  6.74569450  1
  Mo  Mo31  1  0.78646349  10.80106661  3.89743559  1
  Mo  Mo32  1  0.33610909  9.52135981  0.61117143  1
  Mo  Mo33  1  2.39760464  8.46007923  4.79371987  1
  Mo  Mo34  1  2.62458005  9.36241049  2.49819906  1
  Mo  Mo35  1  4.68703875  8.88505615  0.67408093  1
  Mo  Mo36  1  3.34048744  10.28682467  5.04698825  1
  Mo  Mo37  1  2.14147661  10.95576616  0.54542413  1
  Mo  Mo38  1  0.75361019  6.20061195  1.25868633  1
  Mo  Mo39  1  4.30589005  7.77172583  2.92742576  1
  Mo  Mo40  1  4.94540089  10.33379058  2.25687571  1
  Mo  Mo41  1  0.65737278  7.90666593  3.47527861  1
  Mo  Mo42  1  2.55999944  7.72103641  0.65454092  1
  Mo  Mo43  1  0.07404568  11.61140229  1.91866160  1
  Mo  Mo44  1  3.04413554  5.98474750  2.65142906  1
  Mo  Mo45  1  3.24085617  11.69540474  2.71901826  1
  Mo  Mo46  1  5.90090392  7.52466331  4.68078325  1
  Mo  Mo47  1  3.81513107  10.05547041  10.37896920  1
  Mo  Mo48  1  4.03346793  11.08792604  8.05702634  1
  Mo  Mo49  1  0.60735458  6.68035927  8.67992535  1
  Mo  Mo50  1  1.86377206  6.07511467  10.92031832  1
  Mo  Mo51  1  1.66692235  10.70365952  9.58526522  1
  Mo  Mo52  1  0.16367669  11.57625233  7.09488057  1
  Mo  Mo53  1  0.91895005  9.44712786  6.42384399  1
  Mo  Mo54  1  3.70033765  8.72930410  7.96465344  1
  Mo  Mo55  1  2.35458069  6.73670843  6.61874754  1
  Mo  Mo56  1  3.72979808  6.30698526  8.94796863  1
  Mo  Mo57  1  0.80710268  8.93449447  8.62640606  1
  Mo  Mo58  1  4.40915547  7.89705431  10.50229195  1
  Mo  Mo59  1  1.48289145  8.73434822  10.80861293  1
  Mo  Mo60  1  5.49551764  11.46911446  6.61478572  1
  Mo  Mo61  1  5.94633078  9.43314731  7.33229174  1
  Mo  Mo62  1  4.30407298  7.82982256  6.37988668  1
  Mo  Mo63  1  9.21663745  2.42824667  5.26809540  1
  Mo  Mo64  1  6.87328687  5.29556996  5.39053443  1
  Mo  Mo65  1  7.01898048  3.21082976  1.49370453  1
  Mo  Mo66  1  10.43219061  5.20089345  0.09817612  1
  Mo  Mo67  1  6.61482544  5.37090407  2.95179243  1
  Mo  Mo68  1  8.72414083  2.19271214  2.85214129  1
  Mo  Mo69  1  10.36387657  4.73770831  5.49401830  1
  Mo  Mo70  1  10.14135944  3.63309597  1.73804641  1
  Mo  Mo71  1  11.57128765  1.72836527  3.08097350  1
  Mo  Mo72  1  10.85994776  5.46436921  2.66792174  1
  Mo  Mo73  1  8.78318084  4.71422536  3.59562254  1
  Mo  Mo74  1  7.43745367  0.63351449  5.02812245  1
  Mo  Mo75  1  6.65835579  0.73826734  2.57493321  1
  Mo  Mo76  1  9.88214337  0.58106758  1.32704010  1
  Mo  Mo77  1  6.90563675  2.89016084  4.28123543  1
  Mo  Mo78  1  11.65300634  2.09367663  0.46583230  1
  Mo  Mo79  1  10.57676220  0.18649934  4.44338200  1
  Mo  Mo80  1  8.69216826  5.94609247  1.70821859  1
  Mo  Mo81  1  9.65950710  0.52661393  6.34628570  1
  Mo  Mo82  1  9.36877522  3.27534086  11.05774076  1
  Mo  Mo83  1  11.66948909  2.61888059  9.68470783  1
  Mo  Mo84  1  6.24758779  3.67700364  10.85925271  1
  Mo  Mo85  1  8.06389747  5.54799434  8.89911614  1
  Mo  Mo86  1  10.33776233  3.31468102  7.60185421  1
  Mo  Mo87  1  7.23619533  0.96767941  7.63896026  1
  Mo  Mo88  1  7.91304059  5.41117759  11.10927418  1
  Mo  Mo89  1  7.98441288  3.37059329  6.80780270  1
  Mo  Mo90  1  9.77220542  0.78766495  10.92508441  1
  Mo  Mo91  1  10.69382945  5.02672241  9.65150403  1
  Mo  Mo92  1  9.02233959  2.24879321  8.98902656  1
  Mo  Mo93  1  6.37388934  3.12464285  8.51748090  1
  Mo  Mo94  1  11.00005114  5.60188102  7.63740135  1
  Mo  Mo95  1  10.93610601  0.43456274  8.99084364  1
  Mo  Mo96  1  6.33188811  1.24710869  10.24819943  1
  Mo  Mo97  1  8.69402505  5.94066111  6.83758087  1
  Mo  Mo98  1  7.71955693  1.62563604  11.89389280  1
  Mo  Mo99  1  11.00660452  7.64558315  1.52847718  1
  Mo  Mo100  1  6.56559564  8.08824428  2.40233102  1
  Mo  Mo101  1  7.63017277  10.36268504  1.82264462  1
  Mo  Mo102  1  8.82930276  11.61855144  3.46321442  1
  Mo  Mo103  1  7.98158301  7.47332848  4.69788162  1
  Mo  Mo104  1  6.03545678  11.17292143  0.35197522  1
  Mo  Mo105  1  6.31122510  10.22009933  4.19015334  1
  Mo  Mo106  1  10.86759338  9.42230444  5.24804801  1
  Mo  Mo107  1  10.33329411  7.11874084  4.00591393  1
  Mo  Mo108  1  6.79234267  6.93683483  0.40594332  1
  Mo  Mo109  1  7.89240736  10.15615420  5.91736681  1
  Mo  Mo110  1  9.15830242  8.80929508  3.21012478  1
  Mo  Mo111  1  11.11860779  9.65856381  2.78343007  1
  Mo  Mo112  1  8.88553276  7.96262785  0.09379767  1
  Mo  Mo113  1  7.94618482  10.61687685  8.20113125  1
  Mo  Mo114  1  8.17868095  11.50843475  10.26458289  1
  Mo  Mo115  1  10.43278638  7.75055642  8.42496898  1
  Mo  Mo116  1  8.87050963  9.02301479  9.87068488  1
  Mo  Mo117  1  8.81419026  8.22239996  6.88938238  1
  Mo  Mo118  1  11.48410780  7.68473464  10.89837442  1
  Mo  Mo119  1  6.97372243  7.76722783  9.04496862  1
  Mo  Mo120  1  9.36370131  6.64635118  10.18395643  1
  Mo  Mo121  1  6.04621028  10.41213329  9.65027279  1
  Mo  Mo122  1  10.32127958  10.32088240  7.30897759  1
  Mo  Mo123  1  7.18565485  9.45243014  11.32583368  1
  Mo  Mo124  1  11.56533003  7.26566569  6.32973344  1
  Mo  Mo125  1  10.85369226  10.26785958  9.67631752  1
  Mo  Mo126  1  6.03883276  6.48641886  7.20514619  1
  Mo  Mo127  1  10.09608153  10.51867540  11.90858826  1
