# generated using pymatgen
data_Mo
_symmetry_space_group_name_H-M   'P 1'
_cell_length_a   11.91524094
_cell_length_b   11.91524094
_cell_length_c   11.91524094
_cell_angle_alpha   90.00000000
_cell_angle_beta   90.00000000
_cell_angle_gamma   90.00000000
_symmetry_Int_Tables_number   1
_chemical_formula_structural   Mo
_chemical_formula_sum   Mo128
_cell_volume   1691.64210278
_cell_formula_units_Z   128
loop_
 _symmetry_equiv_pos_site_id
 _symmetry_equiv_pos_as_xyz
  1  'x, y, z'
loop_
 _atom_site_type_symbol
 _atom_site_label
 _atom_site_symmetry_multiplicity
 _atom_site_fract_x
 _atom_site_fract_y
 _atom_site_fract_z
 _atom_site_occupancy
  Mo  Mo0  1  0.87068737  4.65407325  3.71142875  1
  Mo  Mo1  1  2.50550708  1.09682772  5.51997367  1
  Mo  Mo2  1  5.73817152  4.91884976  5.79156173  1
  Mo  Mo3  1  2.37223511  3.97022779  2.38308790  1
  Mo  Mo4  1  5.26291227  4.91879019  0.70070652  1
  Mo  Mo5  1  4.92932525  3.40195023  2.11514392  1
  Mo  Mo6  1  3.80059447  1.35339264  3.14562361  1
  Mo  Mo7  1  5.25932777  5.49268777  3.55236029  1
  Mo  Mo8  1  4.28115600  1.01339124  1.13932541  1
  Mo  Mo9  1  4.78105000  0.99933126  5.34418415  1
  Mo  Mo10  1  3.99094045  3.82501079  4.40406171  1
  Mo  Mo11  1  1.03058891  2.10614792  3.46457475  1
  Mo  Mo12  1  2.54419189  2.68849539  0.50710471  1
  Mo  Mo13  1  1.86881618  0.50638185  1.41471642  1
  Mo  Mo14  1  1.38479923  3.74042251  5.47250136  1
  Mo  Mo15  1  0.20168531  3.35255162  1.25619406  1
  Mo  Mo16  1  4.76421972  1.09989589  10.99727092  1
  Mo  Mo17  1  5.20679149  2.33992494  8.51352901  1
  Mo  Mo18  1  0.17255652  1.50170760  11.69808567  1
  Mo  Mo19  1  1.23542183  5.44411330  7.92845097  1
  Mo  Mo20  1  3.30783968  5.02835083  9.24970224  1
  Mo  Mo21  1  0.86521529  4.28865267  10.76005833  1
  Mo  Mo22  1  3.29046329  5.13485322  6.26757560  1
  Mo  Mo23  1  5.57489300  4.16399939  10.23251103  1
  Mo  Mo24  1  2.50166441  0.21752365  10.94136858  1
  Mo  Mo25  1  3.04241776  2.88983317  9.90190282  1
  Mo  Mo26  1  3.32347844  0.66512066  8.48267847  1
  Mo  Mo27  1  1.25199394  2.35456083  7.67122077  1
  Mo  Mo28  1  3.53821094  3.13544601  6.84165191  1
  Mo  Mo29  1  3.12102856  4.76750634  11.69977366  1
  Mo  Mo30  1  1.00620238  0.02108978  8.83937113  1
  Mo  Mo31  1  0.33315510  11.26814406  5.05284658  1
  Mo  Mo32  1  3.91948872  6.63505156  1.87440641  1
  Mo  Mo33  1  3.34664365  11.05188244  4.32983969  1
  Mo  Mo34  1  0.97446316  6.07445933  1.39381510  1
  Mo  Mo35  1  3.35070476  9.96114142  2.07984502  1
  Mo  Mo36  1  4.33928251  8.18830251  0.17614896  1
  Mo  Mo37  1  1.90406543  8.06151442  1.26876464  1
  Mo  Mo38  1  5.70745005  11.18910629  0.72924849  1
  Mo  Mo39  1  0.65240114  7.26515929  3.97803227  1
  Mo  Mo40  1  1.93942391  9.03316260  3.87886768  1
  Mo  Mo41  1  1.14790438  10.43606307  2.49211236  1
  Mo  Mo42  1  4.37057988  8.15485047  3.84479009  1
  Mo  Mo43  1  0.30587416  9.06078610  5.53678409  1
  Mo  Mo44  1  0.25811788  10.91138189  0.09138066  1
  Mo  Mo45  1  3.06522552  7.96519955  5.72352570  1
  Mo  Mo46  1  5.31304565  11.53385393  3.01113032  1
  Mo  Mo47  1  2.84789152  6.03249783  3.78838135  1
  Mo  Mo48  1  5.42066013  11.55450702  8.35699253  1
  Mo  Mo49  1  2.74801202  9.76515557  8.40742379  1
  Mo  Mo50  1  4.41632448  10.05954145  9.98040439  1
  Mo  Mo51  1  5.23637108  7.12718080  6.05276367  1
  Mo  Mo52  1  3.06540425  7.06339454  7.73960433  1
  Mo  Mo53  1  5.72152990  9.11981619  7.76863780  1
  Mo  Mo54  1  2.54422168  9.95965202  11.45372394  1
  Mo  Mo55  1  4.84610722  6.37218149  10.64050874  1
  Mo  Mo56  1  2.25059043  7.14064502  10.55591053  1
  Mo  Mo57  1  0.80756042  8.62026971  8.95513763  1
  Mo  Mo58  1  0.12857439  6.71415883  9.57009314  1
  Mo  Mo59  1  4.18386806  10.09449283  6.44442757  1
  Mo  Mo60  1  4.35217083  7.78814900  9.39403553  1
  Mo  Mo61  1  1.83218674  10.31542125  6.48663731  1
  Mo  Mo62  1  0.29966732  8.43166138  11.56801096  1
  Mo  Mo63  1  1.24271991  6.66778869  6.38532797  1
  Mo  Mo64  1  6.06450018  2.62763830  4.15403031  1
  Mo  Mo65  1  9.43736729  4.77249089  1.87473408  1
  Mo  Mo66  1  11.43873059  2.07009438  5.14082077  1
  Mo  Mo67  1  7.05296871  3.43983076  0.30430532  1
  Mo  Mo68  1  6.44935253  1.56540450  1.84521407  1
  Mo  Mo69  1  8.12519145  2.63858046  5.20047641  1
  Mo  Mo70  1  9.62109038  1.49225485  1.64646785  1
  Mo  Mo71  1  10.37489816  3.98998723  5.29009888  1
  Mo  Mo72  1  9.52516276  0.84890829  4.24611526  1
  Mo  Mo73  1  8.42700450  2.95100801  2.78333078  1
  Mo  Mo74  1  7.66905617  4.86213322  4.43569667  1
  Mo  Mo75  1  6.97161740  4.51541956  2.57344381  1
  Mo  Mo76  1  7.34142676  0.02199216  3.82752292  1
  Mo  Mo77  1  9.96352447  3.41618894  0.07448783  1
  Mo  Mo78  1  11.14422555  0.01124769  2.45988163  1
  Mo  Mo79  1  11.29852792  3.77512564  7.61439500  1
  Mo  Mo80  1  10.66563004  5.22150681  9.68015025  1
  Mo  Mo81  1  8.45057682  4.60040502  7.65258335  1
  Mo  Mo82  1  6.11547755  4.09263703  7.72325066  1
  Mo  Mo83  1  9.48895035  0.98720651  9.83695482  1
  Mo  Mo84  1  9.10319443  2.41394838  7.30288096  1
  Mo  Mo85  1  7.44150486  2.61142364  9.32360653  1
  Mo  Mo86  1  11.63165820  0.66623077  6.95080545  1
  Mo  Mo87  1  7.72983383  5.21729676  10.57398198  1
  Mo  Mo88  1  11.71149032  1.91824457  9.44560866  1
  Mo  Mo89  1  9.60551120  3.00640395  9.71348314  1
  Mo  Mo90  1  6.68293097  1.76865865  6.95323814  1
  Mo  Mo91  1  7.83491632  1.52320468  11.73571797  1
  Mo  Mo92  1  11.35869989  5.58154568  11.64724731  1
  Mo  Mo93  1  10.09062037  0.05821787  11.88872952  1
  Mo  Mo94  1  7.98513772  0.10960036  8.23935932  1
  Mo  Mo95  1  6.51634597  7.23672158  3.74476164  1
  Mo  Mo96  1  7.91388458  8.89347626  5.27843188  1
  Mo  Mo97  1  9.84952540  10.43477225  4.02185057  1
  Mo  Mo98  1  7.92387353  11.58717464  1.48914695  1
  Mo  Mo99  1  6.81583555  6.53169678  1.03952534  1
  Mo  Mo100  1  10.96529835  8.34627875  3.58605063  1
  Mo  Mo101  1  8.29761492  9.16881762  2.94331275  1
  Mo  Mo102  1  8.55111167  6.73659920  2.82284966  1
  Mo  Mo103  1  10.87861497  6.36016695  4.49056636  1
  Mo  Mo104  1  10.41401987  9.96094283  1.34963934  1
  Mo  Mo105  1  10.81407409  7.83982143  1.50195584  1
  Mo  Mo106  1  10.02111480  8.48624311  5.62173976  1
  Mo  Mo107  1  8.29613544  8.35733013  0.81820669  1
  Mo  Mo108  1  6.24917648  10.18028256  4.58089381  1
  Mo  Mo109  1  6.15643619  9.10936057  1.79765240  1
  Mo  Mo110  1  7.57384347  9.68589936  9.47282506  1
  Mo  Mo111  1  9.46688730  9.98298603  8.00667452  1
  Mo  Mo112  1  10.05100220  8.27407239  10.25385917  1
  Mo  Mo113  1  9.41766742  6.48957640  11.77265522  1
  Mo  Mo114  1  10.44211998  8.11888630  7.86766338  1
  Mo  Mo115  1  8.70098554  10.17223977  11.52074717  1
  Mo  Mo116  1  7.83965263  7.61434536  10.55948510  1
  Mo  Mo117  1  10.99498716  10.65639573  9.73118720  1
  Mo  Mo118  1  7.90508716  8.20439802  7.25634201  1
  Mo  Mo119  1  11.00898757  6.27941141  6.74889176  1
  Mo  Mo120  1  6.27582691  9.09975887  11.61815426  1
  Mo  Mo121  1  8.89918564  6.62012772  8.91875643  1
  Mo  Mo122  1  11.45858933  10.02230633  7.40786416  1
  Mo  Mo123  1  6.43202579  6.32650640  8.12188497  1
  Mo  Mo124  1  8.61524545  6.08349506  6.04068956  1
  Mo  Mo125  1  7.13659384  11.77513756  10.24383051  1
  Mo  Mo126  1  6.63880486  10.94772337  6.68137206  1
  Mo  Mo127  1  9.44281851  11.59482025  6.08510362  1
