# generated using pymatgen
data_Mo
_symmetry_space_group_name_H-M   'P 1'
_cell_length_a   11.91524094
_cell_length_b   11.91524094
_cell_length_c   11.91524094
_cell_angle_alpha   90.00000000
_cell_angle_beta   90.00000000
_cell_angle_gamma   90.00000000
_symmetry_Int_Tables_number   1
_chemical_formula_structural   Mo
_chemical_formula_sum   Mo128
_cell_volume   1691.64210278
_cell_formula_units_Z   128
loop_
 _symmetry_equiv_pos_site_id
 _symmetry_equiv_pos_as_xyz
  1  'x, y, z'
loop_
 _atom_site_type_symbol
 _atom_site_label
 _atom_site_symmetry_multiplicity
 _atom_site_fract_x
 _atom_site_fract_y
 _atom_site_fract_z
 _atom_site_occupancy
  Mo  Mo0  1  3.90352229  1.67855957  5.52356810  1
  Mo  Mo1  1  3.77914704  5.70740041  3.19650169  1
  Mo  Mo2  1  1.52321461  3.04163334  1.71047255  1
  Mo  Mo3  1  4.92372508  0.02140325  1.65090628  1
  Mo  Mo4  1  0.39507265  1.47238618  4.01377799  1
  Mo  Mo5  1  3.35739716  1.67217498  2.97192918  1
  Mo  Mo6  1  4.93220476  3.80836917  5.66588572  1
  Mo  Mo7  1  0.45464488  5.77605205  1.12162135  1
  Mo  Mo8  1  3.74460277  1.80067093  0.63412019  1
  Mo  Mo9  1  2.29455766  5.85294508  5.16391648  1
  Mo  Mo10  1  2.55797385  3.55963851  4.72492922  1
  Mo  Mo11  1  3.07066681  4.85939271  1.20758981  1
  Mo  Mo12  1  1.30695299  5.18626749  3.02156609  1
  Mo  Mo13  1  1.49925505  0.08734755  2.00625848  1
  Mo  Mo14  1  4.63637912  3.55059286  2.22598545  1
  Mo  Mo15  1  5.76946888  5.31786139  1.51053481  1
  Mo  Mo16  1  4.74691284  0.18972440  3.91184310  1
  Mo  Mo17  1  4.49537217  0.90769015  7.80711410  1
  Mo  Mo18  1  0.42294439  2.56971037  8.98233417  1
  Mo  Mo19  1  0.70852292  5.08800647  9.88652223  1
  Mo  Mo20  1  1.98282517  4.54119620  7.58375297  1
  Mo  Mo21  1  5.77086892  3.09462638  8.83403906  1
  Mo  Mo22  1  3.78731891  3.31114616  7.33157683  1
  Mo  Mo23  1  2.29583855  3.71189543  11.37071442  1
  Mo  Mo24  1  0.00585718  2.80764780  6.46448489  1
  Mo  Mo25  1  5.19040803  5.68722393  7.82706219  1
  Mo  Mo26  1  4.74134246  3.70389236  11.40725450  1
  Mo  Mo27  1  3.51202720  1.96838787  9.76156114  1
  Mo  Mo28  1  5.32505026  0.93290081  11.50972557  1
  Mo  Mo29  1  1.57737931  0.90640032  11.40874390  1
  Mo  Mo30  1  2.11917525  1.68589737  7.68715741  1
  Mo  Mo31  1  3.47966739  4.76632475  9.62895443  1
  Mo  Mo32  1  0.41827361  9.23058821  4.11241633  1
  Mo  Mo33  1  4.47044946  6.66080834  4.77452641  1
  Mo  Mo34  1  1.96698783  11.61467898  4.54945744  1
  Mo  Mo35  1  2.31962932  7.81211850  3.85211796  1
  Mo  Mo36  1  4.29734087  9.03131574  4.77470514  1
  Mo  Mo37  1  0.51931287  9.35641316  1.78065332  1
  Mo  Mo38  1  5.27417218  9.38835593  0.98358427  1
  Mo  Mo39  1  3.29184347  10.16082100  2.68614213  1
  Mo  Mo40  1  4.82237603  7.73802556  2.28742838  1
  Mo  Mo41  1  2.14887399  7.33607483  1.87816964  1
  Mo  Mo42  1  3.13052104  8.62145131  0.38026995  1
  Mo  Mo43  1  0.70735126  8.36338705  0.12280244  1
  Mo  Mo44  1  3.71120038  11.33486941  5.80457913  1
  Mo  Mo45  1  1.41383270  10.89817583  0.08623020  1
  Mo  Mo46  1  3.57272542  11.16120477  0.09258857  1
  Mo  Mo47  1  4.37925815  6.54048427  0.29022052  1
  Mo  Mo48  1  2.58282706  8.97489707  10.00830592  1
  Mo  Mo49  1  3.29322365  9.19447510  7.75496506  1
  Mo  Mo50  1  3.54737574  11.20737633  9.39231775  1
  Mo  Mo51  1  2.64695092  6.72462439  9.22535544  1
  Mo  Mo52  1  5.63683239  10.61161428  10.73076669  1
  Mo  Mo53  1  3.12109807  7.05705961  6.85075714  1
  Mo  Mo54  1  0.85989315  11.90332569  9.24062680  1
  Mo  Mo55  1  2.16053106  6.53231240  11.69967437  1
  Mo  Mo56  1  4.61887364  8.10689163  9.44445686  1
  Mo  Mo57  1  0.22268294  10.00006454  6.46530903  1
  Mo  Mo58  1  0.80025141  9.23185917  8.40547764  1
  Mo  Mo59  1  2.23961847  11.50088843  7.19923822  1
  Mo  Mo60  1  5.73634451  10.59026614  7.84986002  1
  Mo  Mo61  1  0.99979794  7.17131684  7.82255426  1
  Mo  Mo62  1  5.50965706  7.91004192  6.89106044  1
  Mo  Mo63  1  2.02155964  8.92229128  6.04212931  1
  Mo  Mo64  1  6.33838192  4.67776472  4.01803769  1
  Mo  Mo65  1  9.78782431  2.35820491  2.53485829  1
  Mo  Mo66  1  9.13085765  1.05823226  1.22387397  1
  Mo  Mo67  1  11.25414365  3.54759419  4.33903428  1
  Mo  Mo68  1  11.42890052  1.17206253  1.71974658  1
  Mo  Mo69  1  6.75381673  2.18708219  0.85402489  1
  Mo  Mo70  1  10.67337495  4.94659242  2.61453153  1
  Mo  Mo71  1  8.61113469  1.88079099  4.30083600  1
  Mo  Mo72  1  8.79663514  5.25941714  0.12397907  1
  Mo  Mo73  1  8.52116470  5.06906123  4.22802395  1
  Mo  Mo74  1  7.74877906  3.81304590  2.37479688  1
  Mo  Mo75  1  6.09060449  2.49975797  3.70927408  1
  Mo  Mo76  1  9.40468974  2.92275895  0.16121917  1
  Mo  Mo77  1  9.84581182  0.94630546  5.58254854  1
  Mo  Mo78  1  11.71119243  5.05542821  5.94457328  1
  Mo  Mo79  1  7.65786577  2.03935306  10.49693009  1
  Mo  Mo80  1  8.10549159  1.58785480  8.11029740  1
  Mo  Mo81  1  10.65579997  1.17387961  10.73424197  1
  Mo  Mo82  1  10.89986382  4.99577257  8.49831722  1
  Mo  Mo83  1  7.48599835  4.58470669  8.50654867  1
  Mo  Mo84  1  9.52027751  3.72229148  9.60005997  1
  Mo  Mo85  1  7.08405756  4.11116523  10.88298390  1
  Mo  Mo86  1  9.07512411  5.48844793  6.44591697  1
  Mo  Mo87  1  11.85179228  3.33843206  11.69053935  1
  Mo  Mo88  1  6.38798904  1.14552133  6.31463087  1
  Mo  Mo89  1  9.42850036  3.10123933  6.68305012  1
  Mo  Mo90  1  10.67218342  1.07141846  8.30237108  1
  Mo  Mo91  1  6.91739313  3.25256289  6.19658062  1
  Mo  Mo92  1  6.32840291  0.54128159  9.26002879  1
  Mo  Mo93  1  10.90969389  5.55464702  11.54815222  1
  Mo  Mo94  1  11.85675696  0.60421790  6.46917155  1
  Mo  Mo95  1  6.91006525  5.85802891  6.09714794  1
  Mo  Mo96  1  9.63887387  9.26090257  2.96084801  1
  Mo  Mo97  1  9.02684752  11.38620424  3.39030308  1
  Mo  Mo98  1  8.81222424  7.59189506  4.93512400  1
  Mo  Mo99  1  7.40474634  11.61487757  5.19161942  1
  Mo  Mo100  1  11.50734252  7.13643497  2.47382246  1
  Mo  Mo101  1  8.60358838  6.77161015  2.38527237  1
  Mo  Mo102  1  6.64358089  7.08501078  0.87590525  1
  Mo  Mo103  1  10.47240455  8.31033444  0.23092035  1
  Mo  Mo104  1  7.98141421  9.30537621  1.80639024  1
  Mo  Mo105  1  9.50944457  9.95071559  5.62921657  1
  Mo  Mo106  1  6.94356694  9.14702266  4.95306636  1
  Mo  Mo107  1  11.03361240  11.53305958  3.97384208  1
  Mo  Mo108  1  11.26059774  6.67158170  4.44954814  1
  Mo  Mo109  1  10.84763535  11.00243419  0.35306745  1
  Mo  Mo110  1  6.54031547  7.19878147  3.42906733  1
  Mo  Mo111  1  7.26358052  10.92508441  0.55764023  1
  Mo  Mo112  1  6.06708181  10.27361862  3.09657253  1
  Mo  Mo113  1  10.13381312  10.73444056  7.67392156  1
  Mo  Mo114  1  11.03808062  9.96729763  10.22883717  1
  Mo  Mo115  1  10.08784015  8.55839982  8.90259142  1
  Mo  Mo116  1  8.74394991  7.28726206  11.05585418  1
  Mo  Mo117  1  9.06778630  11.77225804  9.69298892  1
  Mo  Mo118  1  8.02090331  11.17321931  7.16741460  1
  Mo  Mo119  1  8.91666133  9.82186218  11.12267883  1
  Mo  Mo120  1  11.12724633  7.47342777  6.75093721  1
  Mo  Mo121  1  6.18366252  6.13739167  10.56802436  1
  Mo  Mo122  1  9.30054061  6.03811785  8.98573001  1
  Mo  Mo123  1  7.67200519  9.55335223  9.06588979  1
  Mo  Mo124  1  6.87643448  7.20570224  8.70350760  1
  Mo  Mo125  1  8.68445314  7.94468548  7.16981750  1
  Mo  Mo126  1  6.78293956  8.45581953  10.63157231  1
  Mo  Mo127  1  11.78576198  7.48432029  9.53545951  1
