# generated using pymatgen
data_Mo
_symmetry_space_group_name_H-M   'P 1'
_cell_length_a   11.91524094
_cell_length_b   11.91524094
_cell_length_c   11.91524094
_cell_angle_alpha   90.00000000
_cell_angle_beta   90.00000000
_cell_angle_gamma   90.00000000
_symmetry_Int_Tables_number   1
_chemical_formula_structural   Mo
_chemical_formula_sum   Mo128
_cell_volume   1691.64210278
_cell_formula_units_Z   128
loop_
 _symmetry_equiv_pos_site_id
 _symmetry_equiv_pos_as_xyz
  1  'x, y, z'
loop_
 _atom_site_type_symbol
 _atom_site_label
 _atom_site_symmetry_multiplicity
 _atom_site_fract_x
 _atom_site_fract_y
 _atom_site_fract_z
 _atom_site_occupancy
  Mo  Mo0  1  4.34416776  2.75598530  0.44650975  1
  Mo  Mo1  1  3.40096722  4.48520450  2.41519948  1
  Mo  Mo2  1  5.52811575  4.73440183  1.98803809  1
  Mo  Mo3  1  1.87851717  4.31518394  0.99612407  1
  Mo  Mo4  1  5.39789210  3.08179763  5.52875123  1
  Mo  Mo5  1  0.82477298  0.01551364  5.39608495  1
  Mo  Mo6  1  1.87140774  5.89719034  3.69936457  1
  Mo  Mo7  1  5.03600637  0.32500011  3.44785369  1
  Mo  Mo8  1  2.06134661  3.32815517  4.65381509  1
  Mo  Mo9  1  3.28936113  0.94195838  5.12406000  1
  Mo  Mo10  1  4.26648039  2.94744336  3.55857607  1
  Mo  Mo11  1  5.48308607  0.40926370  1.04115375  1
  Mo  Mo12  1  3.67122474  5.59452336  4.86995756  1
  Mo  Mo13  1  1.72577371  2.28548222  2.34660741  1
  Mo  Mo14  1  3.11112898  1.02526677  1.73097670  1
  Mo  Mo15  1  3.34709047  2.01397360  8.48132807  1
  Mo  Mo16  1  3.18929296  5.43607051  10.78508033  1
  Mo  Mo17  1  4.74631707  3.28138785  10.13500465  1
  Mo  Mo18  1  2.25665727  0.33320971  10.07016588  1
  Mo  Mo19  1  2.23542828  2.08340967  11.46295825  1
  Mo  Mo20  1  2.58452498  5.03873695  8.77367844  1
  Mo  Mo21  1  0.88215876  2.56126047  7.05213464  1
  Mo  Mo22  1  1.61782163  2.99433976  9.67014145  1
  Mo  Mo23  1  5.40580580  1.01789917  7.23759537  1
  Mo  Mo24  1  0.11643375  0.40380156  10.79451323  1
  Mo  Mo25  1  3.26234332  3.60331780  6.48677632  1
  Mo  Mo26  1  0.23829588  5.75901326  8.30184483  1
  Mo  Mo27  1  0.50897640  5.07517772  11.34013197  1
  Mo  Mo28  1  0.29047669  0.78763119  8.33444294  1
  Mo  Mo29  1  5.39279833  4.63947708  7.38028038  1
  Mo  Mo30  1  4.39558203  5.86696534  9.24642555  1
  Mo  Mo31  1  2.21467590  0.41005507  7.16276765  1
  Mo  Mo32  1  1.51391080  5.03044592  6.11669886  1
  Mo  Mo33  1  2.37739838  9.58573190  1.75331777  1
  Mo  Mo34  1  0.13976180  9.54422714  3.06190911  1
  Mo  Mo35  1  2.35764887  7.78000692  4.99429310  1
  Mo  Mo36  1  1.67247286  11.79459912  0.71345980  1
  Mo  Mo37  1  0.24557312  8.21736577  5.39953044  1
  Mo  Mo38  1  3.31353914  7.10119565  2.57240122  1
  Mo  Mo39  1  4.20327004  9.01292655  3.39470179  1
  Mo  Mo40  1  5.68691612  6.20088004  5.85447420  1
  Mo  Mo41  1  2.75716689  10.83214553  4.46031157  1
  Mo  Mo42  1  4.17357130  10.80295319  1.05108312  1
  Mo  Mo43  1  4.97073071  8.36362535  0.63678821  1
  Mo  Mo44  1  1.63072980  6.80526078  0.72287185  1
  Mo  Mo45  1  5.17027128  7.08525901  3.08667295  1
  Mo  Mo46  1  0.33285325  11.62252318  2.85707619  1
  Mo  Mo47  1  5.79553347  10.10442219  4.55575265  1
  Mo  Mo48  1  4.76422965  6.07664380  0.41975607  1
  Mo  Mo49  1  2.70123477  6.54774263  7.35288525  1
  Mo  Mo50  1  0.64447751  9.58982280  11.60385597  1
  Mo  Mo51  1  4.00468269  11.17917693  8.37479589  1
  Mo  Mo52  1  4.78354227  11.54964163  10.49802232  1
  Mo  Mo53  1  1.93834161  7.78843695  9.25967133  1
  Mo  Mo54  1  3.01900431  9.94148127  10.90055888  1
  Mo  Mo55  1  4.08922132  11.06876236  6.21007464  1
  Mo  Mo56  1  3.66969562  9.09510199  8.56628374  1
  Mo  Mo57  1  5.85426568  7.63128486  8.08938615  1
  Mo  Mo58  1  3.31562431  7.58585800  11.04145660  1
  Mo  Mo59  1  1.49224492  10.21741840  9.05621859  1
  Mo  Mo60  1  5.58854588  8.26403380  10.17780022  1
  Mo  Mo61  1  2.15780049  9.40351808  6.69939386  1
  Mo  Mo62  1  0.37016285  8.29191546  7.80374804  1
  Mo  Mo63  1  4.57311912  8.37089365  6.13231776  1
  Mo  Mo64  1  8.35142216  3.93735165  1.60254033  1
  Mo  Mo65  1  9.14728082  2.28396303  2.54181877  1
  Mo  Mo66  1  6.84207887  2.87407527  3.92305336  1
  Mo  Mo67  1  10.41789232  4.93832125  0.95483677  1
  Mo  Mo68  1  9.41272260  0.76069083  4.71018411  1
  Mo  Mo69  1  11.58459300  2.13844815  3.24736984  1
  Mo  Mo70  1  9.11118757  3.52295943  4.34405854  1
  Mo  Mo71  1  7.01047102  5.27648572  4.02346905  1
  Mo  Mo72  1  6.48080877  2.43277446  2.09691361  1
  Mo  Mo73  1  7.14854880  0.63069356  5.41069105  1
  Mo  Mo74  1  9.42262218  5.69269501  3.43312844  1
  Mo  Mo75  1  11.84196220  4.84566040  2.67120836  1
  Mo  Mo76  1  11.42989345  2.00645707  0.86835794  1
  Mo  Mo77  1  11.47427773  3.05556424  5.33597256  1
  Mo  Mo78  1  11.40973684  5.39548919  4.88118767  1
  Mo  Mo79  1  7.28395558  5.87586206  0.31808729  1
  Mo  Mo80  1  7.72580251  0.48618552  2.28493611  1
  Mo  Mo81  1  8.87240614  2.40467435  0.09423307  1
  Mo  Mo82  1  7.45506837  0.67295593  11.30478342  1
  Mo  Mo83  1  6.74377814  3.34858981  11.74584593  1
  Mo  Mo84  1  10.47717065  1.35340257  7.02508704  1
  Mo  Mo85  1  8.65463525  4.01285456  10.65212610  1
  Mo  Mo86  1  6.13290359  1.64421388  9.66862226  1
  Mo  Mo87  1  10.02746960  3.80773369  6.72219169  1
  Mo  Mo88  1  11.37875721  3.52609711  8.85322260  1
  Mo  Mo89  1  10.03283146  0.51509388  10.10849323  1
  Mo  Mo90  1  11.07521645  2.93734520  10.97701501  1
  Mo  Mo91  1  7.96260799  0.03468219  8.21413873  1
  Mo  Mo92  1  9.19042392  2.19951376  9.00409934  1
  Mo  Mo93  1  8.57736492  5.67866482  8.88223621  1
  Mo  Mo94  1  10.72202885  5.16427394  9.85276238  1
  Mo  Mo95  1  8.00641636  2.70587178  6.78957238  1
  Mo  Mo96  1  7.03209718  3.54674026  8.64601656  1
  Mo  Mo97  1  6.64341209  5.52723204  10.01466071  1
  Mo  Mo98  1  7.72653728  5.10884821  6.45793151  1
  Mo  Mo99  1  10.18981475  11.58638029  2.49563728  1
  Mo  Mo100  1  9.58859156  8.36885813  3.43120214  1
  Mo  Mo101  1  7.46478922  8.46379281  0.56167949  1
  Mo  Mo102  1  6.35422919  10.04653398  2.03318693  1
  Mo  Mo103  1  9.88494346  8.26017127  5.79552354  1
  Mo  Mo104  1  8.81915494  9.72673884  1.62956807  1
  Mo  Mo105  1  7.50832950  6.97239189  2.35132386  1
  Mo  Mo106  1  8.21639269  10.42414783  3.76127418  1
  Mo  Mo107  1  10.77028558  10.04395235  4.64568294  1
  Mo  Mo108  1  11.78000295  7.27037221  3.36640309  1
  Mo  Mo109  1  11.11006853  11.27201651  0.71619137  1
  Mo  Mo110  1  11.06459203  8.46046647  1.42920336  1
  Mo  Mo111  1  7.44203111  7.93733775  4.84490576  1
  Mo  Mo112  1  9.91452304  6.36544938  6.50118383  1
  Mo  Mo113  1  11.61606909  7.37152267  11.61219664  1
  Mo  Mo114  1  11.54487553  10.39912582  6.87377341  1
  Mo  Mo115  1  9.72443523  9.01315492  8.14143590  1
  Mo  Mo116  1  7.75488562  7.68849787  10.14413966  1
  Mo  Mo117  1  8.23149526  10.02488796  9.51657385  1
  Mo  Mo118  1  10.04524316  9.46234958  11.06618073  1
  Mo  Mo119  1  11.26526454  7.66398226  9.21325154  1
  Mo  Mo120  1  8.02658290  7.39164950  7.52823788  1
  Mo  Mo121  1  7.36546576  9.63716602  6.39597225  1
  Mo  Mo122  1  11.24073900  10.49544068  9.49725130  1
  Mo  Mo123  1  9.64120727  11.01971129  6.66587232  1
  Mo  Mo124  1  6.94461945  10.34739382  11.58310359  1
  Mo  Mo125  1  6.06080645  10.29178936  8.67063146  1
  Mo  Mo126  1  8.89110314  11.43803554  11.69053935  1
  Mo  Mo127  1  9.34117158  6.94097537  11.29187525  1
