# generated using pymatgen
data_Mo
_symmetry_space_group_name_H-M   'P 1'
_cell_length_a   12.39185057
_cell_length_b   12.39185057
_cell_length_c   12.39185057
_cell_angle_alpha   90.00000000
_cell_angle_beta   90.00000000
_cell_angle_gamma   90.00000000
_symmetry_Int_Tables_number   1
_chemical_formula_structural   Mo
_chemical_formula_sum   Mo128
_cell_volume   1902.86730230
_cell_formula_units_Z   128
loop_
 _symmetry_equiv_pos_site_id
 _symmetry_equiv_pos_as_xyz
  1  'x, y, z'
loop_
 _atom_site_type_symbol
 _atom_site_label
 _atom_site_symmetry_multiplicity
 _atom_site_fract_x
 _atom_site_fract_y
 _atom_site_fract_z
 _atom_site_occupancy
  Mo  Mo0  1  2.67616311  1.28505873  2.81312881  1
  Mo  Mo1  1  3.92848472  6.14837355  3.69354596  1
  Mo  Mo2  1  1.53607314  4.74251413  4.52010623  1
  Mo  Mo3  1  3.86450981  2.80746907  1.04254386  1
  Mo  Mo4  1  2.97536474  2.80431153  4.25426727  1
  Mo  Mo5  1  6.10204312  0.35673735  4.10764030  1
  Mo  Mo6  1  4.48444987  1.31957322  5.05192315  1
  Mo  Mo7  1  6.00833968  3.38747321  4.61793035  1
  Mo  Mo8  1  0.58022854  2.94984627  2.41694705  1
  Mo  Mo9  1  2.47969072  4.81610067  2.14296601  1
  Mo  Mo10  1  5.64412055  4.12474860  2.53937615  1
  Mo  Mo11  1  4.68800190  5.71962346  0.63908586  1
  Mo  Mo12  1  0.72252631  0.40958045  4.24185556  1
  Mo  Mo13  1  1.48321912  1.98676713  6.22071892  1
  Mo  Mo14  1  3.17686140  4.48186823  8.00440070  1
  Mo  Mo15  1  2.99457807  0.50862490  12.27617344  1
  Mo  Mo16  1  2.16807738  0.99469424  9.75704327  1
  Mo  Mo17  1  5.74708809  0.23533494  11.57923114  1
  Mo  Mo18  1  0.80359959  4.21635695  6.67499741  1
  Mo  Mo19  1  4.15547006  2.00818478  8.70688358  1
  Mo  Mo20  1  5.84479307  2.41475266  6.82279604  1
  Mo  Mo21  1  3.96013955  2.78732238  10.80225814  1
  Mo  Mo22  1  1.52560759  3.87278097  9.83505831  1
  Mo  Mo23  1  5.28733852  5.68096843  6.40118517  1
  Mo  Mo24  1  2.38326663  4.38455050  12.35193452  1
  Mo  Mo25  1  3.87109298  5.16483991  10.60972770  1
  Mo  Mo26  1  0.06673240  0.70942054  8.63534249  1
  Mo  Mo27  1  3.56317337  3.37534945  6.24272240  1
  Mo  Mo28  1  6.11644070  2.79496800  12.27825861  1
  Mo  Mo29  1  0.08606895  5.04733578  11.12883503  1
  Mo  Mo30  1  2.88043006  0.19745739  7.57626623  1
  Mo  Mo31  1  1.50615596  2.31154681  12.09615401  1
  Mo  Mo32  1  4.34093079  11.67971634  2.92358309  1
  Mo  Mo33  1  0.53358236  9.31679498  2.71042936  1
  Mo  Mo34  1  1.00346187  10.16558710  5.23080070  1
  Mo  Mo35  1  1.10546627  7.68332467  5.10201680  1
  Mo  Mo36  1  2.98895805  6.43603725  5.93306514  1
  Mo  Mo37  1  0.01947218  6.46133728  2.83539045  1
  Mo  Mo38  1  2.55607734  7.92853040  3.38657957  1
  Mo  Mo39  1  5.43314135  7.75868857  5.71164025  1
  Mo  Mo40  1  2.46386331  10.11375580  2.17504780  1
  Mo  Mo41  1  4.00115776  9.56067017  4.69087149  1
  Mo  Mo42  1  0.84181475  9.29109778  0.34877797  1
  Mo  Mo43  1  3.64915176  8.16911897  1.23628568  1
  Mo  Mo44  1  0.37264916  11.81892607  1.02340997  1
  Mo  Mo45  1  2.77868383  12.08979922  5.24425499  1
  Mo  Mo46  1  1.76956222  6.70248190  0.90350790  1
  Mo  Mo47  1  5.43727197  10.80990375  0.79547539  1
  Mo  Mo48  1  2.75064330  8.76173341  7.39263251  1
  Mo  Mo49  1  0.41298225  11.52293163  10.82201758  1
  Mo  Mo50  1  0.70356718  7.86377107  7.45470099  1
  Mo  Mo51  1  4.62194182  11.90620521  9.46134671  1
  Mo  Mo52  1  2.31507174  7.56273250  11.44270234  1
  Mo  Mo53  1  5.51213940  7.02390545  11.49354070  1
  Mo  Mo54  1  4.26383918  9.09250050  10.59910328  1
  Mo  Mo55  1  4.94974003  9.45780193  7.17515950  1
  Mo  Mo56  1  1.00829748  11.69202876  6.72170515  1
  Mo  Mo57  1  2.53114470  10.12517457  11.69312099  1
  Mo  Mo58  1  1.77961074  10.64289179  9.16892684  1
  Mo  Mo59  1  1.68877689  6.59733982  9.27603493  1
  Mo  Mo60  1  0.33718940  8.84098962  10.06559837  1
  Mo  Mo61  1  3.97389172  7.51058347  8.98731871  1
  Mo  Mo62  1  4.96423690  12.16873769  7.08496113  1
  Mo  Mo63  1  6.11981668  6.29514946  8.76878326  1
  Mo  Mo64  1  8.97103455  5.89844144  5.80767709  1
  Mo  Mo65  1  8.11511314  2.22872596  4.61913181  1
  Mo  Mo66  1  10.17243836  2.80658536  2.03077409  1
  Mo  Mo67  1  11.43118427  4.96585539  3.27332520  1
  Mo  Mo68  1  9.54458460  0.50327495  3.08700062  1
  Mo  Mo69  1  8.60171173  4.45974560  1.49745783  1
  Mo  Mo70  1  9.32068729  4.22485648  4.16610442  1
  Mo  Mo71  1  11.63662288  4.76314735  1.01932900  1
  Mo  Mo72  1  6.70974026  0.39324068  1.48479789  1
  Mo  Mo73  1  11.27598826  1.93922532  3.71233232  1
  Mo  Mo74  1  6.73595379  5.75749407  4.45117656  1
  Mo  Mo75  1  7.26882323  2.47123090  2.27795576  1
  Mo  Mo76  1  10.66582863  0.06044860  1.34545908  1
  Mo  Mo77  1  11.05049232  4.15556936  5.87189031  1
  Mo  Mo78  1  8.25440231  0.10674666  5.62928607  1
  Mo  Mo79  1  9.89346285  5.46847004  10.90055888  1
  Mo  Mo80  1  12.34121080  1.75020988  10.79590334  1
  Mo  Mo81  1  8.98943367  2.54898778  6.61910500  1
  Mo  Mo82  1  12.17092215  5.48911319  8.39615396  1
  Mo  Mo83  1  8.40427618  3.37201318  10.77604461  1
  Mo  Mo84  1  6.83815677  4.86765394  11.65816961  1
  Mo  Mo85  1  10.11961413  1.99118570  9.45465432  1
  Mo  Mo86  1  9.95299934  4.08840712  8.52719182  1
  Mo  Mo87  1  7.23711876  4.46469043  7.32849873  1
  Mo  Mo88  1  6.28061286  3.84625963  9.34982999  1
  Mo  Mo89  1  10.32594638  2.60050133  12.03270535  1
  Mo  Mo90  1  7.75854956  1.34788184  11.25195919  1
  Mo  Mo91  1  7.69332354  1.38160197  8.30259946  1
  Mo  Mo92  1  8.70889925  6.03400709  9.09465517  1
  Mo  Mo93  1  11.81276986  1.22851099  6.61143953  1
  Mo  Mo94  1  12.12177178  3.07375485  8.36167920  1
  Mo  Mo95  1  10.38194801  0.04899140  10.81864159  1
  Mo  Mo96  1  8.27852074  11.19843990  0.10331408  1
  Mo  Mo97  1  10.42434641  11.72985965  5.69017296  1
  Mo  Mo98  1  7.32940230  10.93759542  2.49698768  1
  Mo  Mo99  1  8.09534377  7.72779831  4.40028855  1
  Mo  Mo100  1  6.73779073  6.53624443  1.99257581  1
  Mo  Mo101  1  11.29654205  9.22409441  4.54251681  1
  Mo  Mo102  1  9.22598099  6.68081602  0.50374958  1
  Mo  Mo103  1  6.61397151  10.45989355  4.78483309  1
  Mo  Mo104  1  10.96202166  7.93887680  1.75136169  1
  Mo  Mo105  1  9.04392603  10.40826084  3.91551697  1
  Mo  Mo106  1  8.70250473  8.51211904  2.04380142  1
  Mo  Mo107  1  11.61328887  11.10083422  3.55950943  1
  Mo  Mo108  1  10.23350397  10.44033270  1.98566497  1
  Mo  Mo109  1  9.65343032  6.46239972  3.38398800  1
  Mo  Mo110  1  6.86891795  8.38662177  0.40542898  1
  Mo  Mo111  1  11.02378233  6.83383750  5.70813518  1
  Mo  Mo112  1  6.41801545  8.60788779  2.68734358  1
  Mo  Mo113  1  8.65051457  11.68021281  10.02578160  1
  Mo  Mo114  1  10.60267785  10.06490331  9.94565161  1
  Mo  Mo115  1  10.72302179  7.24087206  9.70279914  1
  Mo  Mo116  1  10.90194899  10.11504662  12.14858107  1
  Mo  Mo117  1  8.03977903  9.27870593  8.55810194  1
  Mo  Mo118  1  6.56218986  10.45621968  10.95159582  1
  Mo  Mo119  1  7.68400980  7.57204625  10.76472513  1
  Mo  Mo120  1  11.87155172  7.25055319  11.61775709  1
  Mo  Mo121  1  7.16290666  7.56729008  6.90304519  1
  Mo  Mo122  1  8.84259818  9.25981034  11.33616023  1
  Mo  Mo123  1  9.67308054  8.02644389  7.26535788  1
  Mo  Mo124  1  8.26202806  9.77350617  6.22787799  1
  Mo  Mo125  1  11.34728112  10.38184872  7.70827717  1
  Mo  Mo126  1  6.83066010  11.30915235  8.23183286  1
  Mo  Mo127  1  9.68702137  12.09238085  8.02583820  1
