# generated using pymatgen
data_Mo
_symmetry_space_group_name_H-M   'P 1'
_cell_length_a   12.39185057
_cell_length_b   12.39185057
_cell_length_c   12.39185057
_cell_angle_alpha   90.00000000
_cell_angle_beta   90.00000000
_cell_angle_gamma   90.00000000
_symmetry_Int_Tables_number   1
_chemical_formula_structural   Mo
_chemical_formula_sum   Mo128
_cell_volume   1902.86730230
_cell_formula_units_Z   128
loop_
 _symmetry_equiv_pos_site_id
 _symmetry_equiv_pos_as_xyz
  1  'x, y, z'
loop_
 _atom_site_type_symbol
 _atom_site_label
 _atom_site_symmetry_multiplicity
 _atom_site_fract_x
 _atom_site_fract_y
 _atom_site_fract_z
 _atom_site_occupancy
  Mo  Mo0  1  4.40863915  5.90844031  1.98856435  1
  Mo  Mo1  1  5.50791942  3.12181298  3.55483270  1
  Mo  Mo2  1  4.01161339  3.31827545  1.27877345  1
  Mo  Mo3  1  3.26766546  3.08396224  5.06908109  1
  Mo  Mo4  1  4.68208400  0.97368370  3.83690617  1
  Mo  Mo5  1  2.83063428  4.15381186  3.12115765  1
  Mo  Mo6  1  1.37777917  1.72899082  5.92248044  1
  Mo  Mo7  1  5.47323614  4.39337771  5.32853546  1
  Mo  Mo8  1  1.14293970  5.53879975  5.19882814  1
  Mo  Mo9  1  2.56978980  1.63198090  0.58599453  1
  Mo  Mo10  1  1.49723939  1.22001145  3.38929028  1
  Mo  Mo11  1  1.70340284  4.54760064  0.78061212  1
  Mo  Mo12  1  0.39111778  1.55114592  0.75406992  1
  Mo  Mo13  1  0.68685009  3.74628083  3.85334920  1
  Mo  Mo14  1  2.93515081  3.21336175  10.44370868  1
  Mo  Mo15  1  6.05441194  3.73829762  10.98565356  1
  Mo  Mo16  1  4.62240850  1.83314989  9.29990513  1
  Mo  Mo17  1  2.71696288  4.61334299  6.96862866  1
  Mo  Mo18  1  0.25248396  1.12572218  8.86865284  1
  Mo  Mo19  1  0.85931923  4.74408297  9.49756904  1
  Mo  Mo20  1  1.66111367  2.77748238  8.25509737  1
  Mo  Mo21  1  4.65740952  3.96618653  7.85727726  1
  Mo  Mo22  1  3.58423356  5.93751350  9.26226289  1
  Mo  Mo23  1  3.71983893  5.16575341  11.53891791  1
  Mo  Mo24  1  3.96148994  1.58163901  6.46151601  1
  Mo  Mo25  1  0.61418301  2.44570250  10.87295523  1
  Mo  Mo26  1  2.44545426  0.38786889  10.37162147  1
  Mo  Mo27  1  6.16794433  1.39826345  11.96151179  1
  Mo  Mo28  1  0.35690019  7.78655038  5.12019748  1
  Mo  Mo29  1  3.06200840  11.75964775  2.88135349  1
  Mo  Mo30  1  4.57963278  12.06090476  1.09744334  1
  Mo  Mo31  1  3.61505431  9.32007167  5.21618467  1
  Mo  Mo32  1  4.65760811  6.31384645  4.42265941  1
  Mo  Mo33  1  3.46140728  7.80958651  2.92442709  1
  Mo  Mo34  1  1.79858576  9.56939809  3.99421714  1
  Mo  Mo35  1  1.22953371  9.29644971  1.57581047  1
  Mo  Mo36  1  3.42256359  11.81425927  5.40263833  1
  Mo  Mo37  1  5.48400950  11.18900700  3.42835242  1
  Mo  Mo38  1  2.76748351  7.19039115  5.28005036  1
  Mo  Mo39  1  4.42496303  9.82507930  1.54093853  1
  Mo  Mo40  1  1.27955787  6.55220092  2.86435442  1
  Mo  Mo41  1  1.55593188  11.43743977  1.13540331  1
  Mo  Mo42  1  5.72846060  10.72044015  5.60551517  1
  Mo  Mo43  1  2.03757571  8.02218419  9.43785383  1
  Mo  Mo44  1  5.23118795  11.54676211  7.38165063  1
  Mo  Mo45  1  0.07869878  8.81838045  7.33798127  1
  Mo  Mo46  1  4.21904780  11.59154356  11.17540377  1
  Mo  Mo47  1  3.70201571  10.24750438  9.03249733  1
  Mo  Mo48  1  1.05946351  11.15276481  6.50661519  1
  Mo  Mo49  1  2.83831961  8.94278550  7.44879301  1
  Mo  Mo50  1  4.72540583  6.89703792  6.87078467  1
  Mo  Mo51  1  1.02048081  10.92488583  9.10262845  1
  Mo  Mo52  1  0.22427859  12.11362970  11.14194180  1
  Mo  Mo53  1  0.39728194  6.78456798  11.42443230  1
  Mo  Mo54  1  4.90296278  8.18514497  8.77061027  1
  Mo  Mo55  1  1.18750270  6.45559810  7.46242603  1
  Mo  Mo56  1  2.92444695  9.59853085  11.58856475  1
  Mo  Mo57  1  2.75239087  7.31796367  12.32155065  1
  Mo  Mo58  1  3.12406695  12.19445475  8.05810865  1
  Mo  Mo59  1  5.71660493  6.38404708  10.99141259  1
  Mo  Mo60  1  5.39489343  8.26510617  12.06735884  1
  Mo  Mo61  1  7.25973786  5.13843772  2.89255382  1
  Mo  Mo62  1  8.90079420  1.41511359  5.76863482  1
  Mo  Mo63  1  9.39761010  5.62472849  5.93298571  1
  Mo  Mo64  1  8.15285467  2.57645241  3.35416018  1
  Mo  Mo65  1  11.56106040  1.60980863  2.93057337  1
  Mo  Mo66  1  11.57476293  1.46985419  5.42583334  1
  Mo  Mo67  1  6.96552077  0.58299784  4.52304532  1
  Mo  Mo68  1  6.98929167  3.24245480  0.67617999  1
  Mo  Mo69  1  12.09049427  3.61568979  1.54654863  1
  Mo  Mo70  1  9.39359864  2.13512181  1.26769227  1
  Mo  Mo71  1  7.47632715  3.31512784  5.66786167  1
  Mo  Mo72  1  9.60916520  4.27870344  2.22895433  1
  Mo  Mo73  1  10.36050058  3.57273535  5.06925982  1
  Mo  Mo74  1  6.49323041  1.00238950  2.07882230  1
  Mo  Mo75  1  6.37218149  5.67255826  0.92826181  1
  Mo  Mo76  1  11.03212299  5.54278143  3.64412750  1
  Mo  Mo77  1  8.09460900  0.24704763  0.58497180  1
  Mo  Mo78  1  11.44180870  6.03228931  1.02028222  1
  Mo  Mo79  1  8.48478349  2.27568194  11.14501990  1
  Mo  Mo80  1  10.64457978  2.29735775  10.05378242  1
  Mo  Mo81  1  6.43657344  0.14757920  9.77178838  1
  Mo  Mo82  1  10.76621453  4.30248428  8.86627972  1
  Mo  Mo83  1  6.82347124  3.66769982  8.46559003  1
  Mo  Mo84  1  8.81574917  4.10821620  7.48830197  1
  Mo  Mo85  1  10.25266765  0.26950289  11.97064681  1
  Mo  Mo86  1  8.41217996  1.99110627  9.12892142  1
  Mo  Mo87  1  11.01325720  4.24255062  11.83143707  1
  Mo  Mo88  1  10.89777865  1.81402593  7.49873773  1
  Mo  Mo89  1  8.87937656  4.84447880  10.07205246  1
  Mo  Mo90  1  6.82505994  5.98067646  8.86475060  1
  Mo  Mo91  1  12.32611816  4.16684912  7.00958730  1
  Mo  Mo92  1  6.49717237  1.98182231  7.09104783  1
  Mo  Mo93  1  10.51500154  0.22301756  8.90455743  1
  Mo  Mo94  1  7.86987763  0.10492660  7.42325468  1
  Mo  Mo95  1  8.72882749  4.88942905  12.30665660  1
  Mo  Mo96  1  11.08772745  8.01079521  0.08575310  1
  Mo  Mo97  1  9.18808059  10.42424712  0.49296529  1
  Mo  Mo98  1  11.62897727  7.79811809  2.53544412  1
  Mo  Mo99  1  12.25571895  10.55879005  2.79708295  1
  Mo  Mo100  1  7.76839949  10.99568222  2.28291052  1
  Mo  Mo101  1  11.24222841  9.70447720  4.33998750  1
  Mo  Mo102  1  8.73490426  11.62530341  4.27586364  1
  Mo  Mo103  1  9.81462368  11.99120060  2.37108330  1
  Mo  Mo104  1  8.80671345  8.97925606  3.15721118  1
  Mo  Mo105  1  8.91211368  6.51783538  1.71580462  1
  Mo  Mo106  1  7.59348375  8.38816082  0.35088498  1
  Mo  Mo107  1  6.28490235  8.23589397  2.26014248  1
  Mo  Mo108  1  6.31961542  8.74550882  4.62130634  1
  Mo  Mo109  1  8.84842672  8.70826377  6.04459180  1
  Mo  Mo110  1  7.71137513  6.76098573  4.36072995  1
  Mo  Mo111  1  12.39055976  12.05613866  4.60913293  1
  Mo  Mo112  1  11.66799969  10.12408234  0.00136702  1
  Mo  Mo113  1  6.46908218  10.32048523  9.78012905  1
  Mo  Mo114  1  8.55162800  6.97330539  7.95937102  1
  Mo  Mo115  1  10.55005221  11.45779498  6.80232169  1
  Mo  Mo116  1  8.94924951  6.88500353  11.16001325  1
  Mo  Mo117  1  8.68664753  11.40646015  10.50090184  1
  Mo  Mo118  1  9.38865381  8.87193946  10.28861196  1
  Mo  Mo119  1  11.82716745  9.59780601  9.96819127  1
  Mo  Mo120  1  6.78307857  9.01886431  7.33020658  1
  Mo  Mo121  1  10.54032143  9.27425757  8.16293298  1
  Mo  Mo122  1  8.45070590  10.16022524  8.55053577  1
  Mo  Mo123  1  6.51254303  10.55670488  11.95545487  1
  Mo  Mo124  1  7.06251083  8.22358155  10.11713178  1
  Mo  Mo125  1  10.63534547  7.16135768  9.45912253  1
  Mo  Mo126  1  11.35135216  6.94112431  6.96195613  1
  Mo  Mo127  1  6.94651596  6.28856628  6.42816326  1
