# generated using pymatgen
data_Mo
_symmetry_space_group_name_H-M   'P 1'
_cell_length_a   12.39185057
_cell_length_b   12.39185057
_cell_length_c   12.39185057
_cell_angle_alpha   90.00000000
_cell_angle_beta   90.00000000
_cell_angle_gamma   90.00000000
_symmetry_Int_Tables_number   1
_chemical_formula_structural   Mo
_chemical_formula_sum   Mo128
_cell_volume   1902.86730230
_cell_formula_units_Z   128
loop_
 _symmetry_equiv_pos_site_id
 _symmetry_equiv_pos_as_xyz
  1  'x, y, z'
loop_
 _atom_site_type_symbol
 _atom_site_label
 _atom_site_symmetry_multiplicity
 _atom_site_fract_x
 _atom_site_fract_y
 _atom_site_fract_z
 _atom_site_occupancy
  Mo  Mo0  1  5.84911234  3.56192227  3.00285916  1
  Mo  Mo1  1  3.68397405  3.67117510  3.09286888  1
  Mo  Mo2  1  0.97461607  3.49232733  4.41695996  1
  Mo  Mo3  1  3.10604515  3.71513241  0.50397398  1
  Mo  Mo4  1  1.00373990  2.73789399  1.93145063  1
  Mo  Mo5  1  4.97129668  5.71390414  2.20026839  1
  Mo  Mo6  1  2.45209701  2.53017162  5.58512025  1
  Mo  Mo7  1  4.97542730  1.77242188  4.77938187  1
  Mo  Mo8  1  0.50965259  5.34803674  2.55789442  1
  Mo  Mo9  1  4.24125980  0.53126286  2.40100048  1
  Mo  Mo10  1  2.67293607  4.60835844  5.50859461  1
  Mo  Mo11  1  5.47549010  2.52448210  0.75691270  1
  Mo  Mo12  1  0.77878313  4.38032059  0.56499689  1
  Mo  Mo13  1  2.29000008  1.06054581  4.07413862  1
  Mo  Mo14  1  5.47227299  0.13626170  0.07760496  1
  Mo  Mo15  1  1.89290482  0.38369558  1.35552746  1
  Mo  Mo16  1  4.71558568  5.49993620  4.67317735  1
  Mo  Mo17  1  2.73327684  6.14793665  3.05607064  1
  Mo  Mo18  1  1.98682671  1.25102086  11.54388259  1
  Mo  Mo19  1  6.11301507  6.02193298  8.10791435  1
  Mo  Mo20  1  2.23392895  3.79198571  7.86454556  1
  Mo  Mo21  1  4.91375600  4.00920055  7.07844747  1
  Mo  Mo22  1  4.24336482  1.90195048  10.76273926  1
  Mo  Mo23  1  2.07919961  1.65230632  8.58061182  1
  Mo  Mo24  1  2.88901896  5.85320324  10.95338311  1
  Mo  Mo25  1  3.98277851  4.02471022  9.22170143  1
  Mo  Mo26  1  1.13386426  5.58453442  9.14844256  1
  Mo  Mo27  1  0.25402996  1.74505654  6.62870670  1
  Mo  Mo28  1  1.97430578  3.55262838  10.68816971  1
  Mo  Mo29  1  4.37592188  1.74787648  7.72937708  1
  Mo  Mo30  1  4.99534561  5.37042747  12.07609669  1
  Mo  Mo31  1  0.31276812  5.52611995  6.70950196  1
  Mo  Mo32  1  6.11174411  2.33211053  9.35752525  1
  Mo  Mo33  1  5.88630775  0.02688307  6.82778058  1
  Mo  Mo34  1  3.80811100  11.41420505  4.30349707  1
  Mo  Mo35  1  0.29309308  7.89999340  2.90847059  1
  Mo  Mo36  1  4.50423910  8.29548010  2.12952165  1
  Mo  Mo37  1  3.24577121  10.69452450  1.36377876  1
  Mo  Mo38  1  3.70792369  8.21581679  0.14896931  1
  Mo  Mo39  1  3.74180269  8.23997494  4.65942518  1
  Mo  Mo40  1  2.59577496  8.92870565  2.82580861  1
  Mo  Mo41  1  0.44779759  10.47975228  2.40424739  1
  Mo  Mo42  1  1.45675736  9.68998033  4.42678010  1
  Mo  Mo43  1  1.64765938  6.72820889  0.46175530  1
  Mo  Mo44  1  5.69319148  11.15862314  2.78105695  1
  Mo  Mo45  1  1.76133077  6.68070679  5.24501955  1
  Mo  Mo46  1  6.13968535  9.55995526  4.96613341  1
  Mo  Mo47  1  1.45165366  9.29281556  0.00614002  1
  Mo  Mo48  1  5.56739633  9.84260463  0.62344909  1
  Mo  Mo49  1  4.57857034  7.61145591  6.61481551  1
  Mo  Mo50  1  3.76370687  11.85645908  10.68697818  1
  Mo  Mo51  1  2.75785202  9.51230423  10.55233596  1
  Mo  Mo52  1  2.12855850  11.45183736  8.68495954  1
  Mo  Mo53  1  4.06321631  6.99253858  9.61384194  1
  Mo  Mo54  1  0.06999410  12.04660647  8.17750929  1
  Mo  Mo55  1  0.84615686  11.56056393  10.74446922  1
  Mo  Mo56  1  4.44843605  10.37827415  6.37891360  1
  Mo  Mo57  1  1.37174211  7.71376811  10.15426762  1
  Mo  Mo58  1  2.80472856  6.58638773  7.49965123  1
  Mo  Mo59  1  5.43657691  9.25500453  10.30747776  1
  Mo  Mo60  1  3.40482974  9.23355709  8.57278748  1
  Mo  Mo61  1  0.21379815  7.82206772  7.16342299  1
  Mo  Mo62  1  1.76506422  9.80264886  6.76495748  1
  Mo  Mo63  1  4.62252765  11.75805905  8.67644014  1
  Mo  Mo64  1  0.48096267  9.40866149  9.01186411  1
  Mo  Mo65  1  2.78250664  12.35133875  6.73141607  1
  Mo  Mo66  1  10.76313643  3.14357816  2.33912067  1
  Mo  Mo67  1  10.14433825  5.94834644  2.09682424  1
  Mo  Mo68  1  8.92004725  5.21571799  4.66835168  1
  Mo  Mo69  1  7.61563617  6.05780779  2.62447083  1
  Mo  Mo70  1  6.89859683  4.63355918  5.54846102  1
  Mo  Mo71  1  7.01611090  1.55258568  3.72858670  1
  Mo  Mo72  1  7.24505232  4.07322511  0.49943825  1
  Mo  Mo73  1  8.45793448  2.47388204  5.46682176  1
  Mo  Mo74  1  8.15161350  3.31525692  2.73406126  1
  Mo  Mo75  1  12.09198368  0.75918951  2.27101513  1
  Mo  Mo76  1  10.80960587  3.45147791  5.04582651  1
  Mo  Mo77  1  9.45334364  1.24567886  3.77691293  1
  Mo  Mo78  1  10.20470881  0.52910620  5.83815032  1
  Mo  Mo79  1  7.57107317  1.23197634  1.46534626  1
  Mo  Mo80  1  12.23089553  0.52867130  4.68105134  1
  Mo  Mo81  1  11.62401259  2.10829266  0.22963450  1
  Mo  Mo82  1  11.59452237  5.45545264  4.38828394  1
  Mo  Mo83  1  7.54739163  1.95511231  10.97453266  1
  Mo  Mo84  1  9.85209711  1.98427486  7.56156084  1
  Mo  Mo85  1  11.96121391  3.53033695  7.93697036  1
  Mo  Mo86  1  9.93899893  3.23597092  9.97424819  1
  Mo  Mo87  1  6.25194678  2.49780189  6.41422243  1
  Mo  Mo88  1  10.52691678  0.38836040  8.88489728  1
  Mo  Mo89  1  9.30574359  2.11147006  12.36504128  1
  Mo  Mo90  1  7.79261722  4.05771544  7.73458007  1
  Mo  Mo91  1  12.13835382  1.51838894  10.46515611  1
  Mo  Mo92  1  8.91183566  5.66511123  9.09265937  1
  Mo  Mo93  1  11.73214340  4.30256371  10.87672839  1
  Mo  Mo94  1  7.00599287  4.30874971  10.19100628  1
  Mo  Mo95  1  8.01156970  0.58705399  8.49005599  1
  Mo  Mo96  1  10.07086093  5.56339479  6.98586604  1
  Mo  Mo97  1  9.76970322  4.34963884  12.18432679  1
  Mo  Mo98  1  9.90722496  11.66184348  1.91317066  1
  Mo  Mo99  1  8.52201862  10.62432387  3.35571909  1
  Mo  Mo100  1  8.41733330  8.76929959  1.22497613  1
  Mo  Mo101  1  8.67157475  8.80972204  5.04915285  1
  Mo  Mo102  1  10.93372296  7.02880063  0.41698776  1
  Mo  Mo103  1  6.70285921  8.29879651  2.80069724  1
  Mo  Mo104  1  7.72366769  11.36217517  0.24449479  1
  Mo  Mo105  1  9.32162065  7.94401028  2.99878812  1
  Mo  Mo106  1  6.66063954  6.99813874  5.18296101  1
  Mo  Mo107  1  7.61640073  11.90114123  5.05060254  1
  Mo  Mo108  1  10.94037564  9.21060040  1.50101255  1
  Mo  Mo109  1  10.70316305  10.59989763  4.07499254  1
  Mo  Mo110  1  10.91555222  8.01877842  5.08479928  1
  Mo  Mo111  1  12.21222832  12.27001723  0.21568075  1
  Mo  Mo112  1  10.43288567  10.44162351  11.96617859  1
  Mo  Mo113  1  6.77566133  10.20500669  7.28537548  1
  Mo  Mo114  1  7.92605799  9.39535614  11.08196842  1
  Mo  Mo115  1  9.06059744  12.26038575  10.98217828  1
  Mo  Mo116  1  12.11313323  8.94017407  11.36296952  1
  Mo  Mo117  1  9.37194269  11.07670585  7.47991165  1
  Mo  Mo118  1  10.23787289  8.79656563  7.53264652  1
  Mo  Mo119  1  7.02370686  7.62926919  9.64856493  1
  Mo  Mo120  1  8.27414189  7.33045481  7.20429227  1
  Mo  Mo121  1  11.50207996  6.39346012  9.28346209  1
  Mo  Mo122  1  9.09757441  6.33357611  11.55401055  1
  Mo  Mo123  1  8.65837863  9.37169445  8.87799637  1
  Mo  Mo124  1  6.76288224  11.24560439  9.91028320  1
  Mo  Mo125  1  10.90075746  10.92170843  9.70489424  1
  Mo  Mo126  1  11.86728209  10.56971235  6.22575311  1
  Mo  Mo127  1  6.93706320  6.21921958  12.13825453  1
