# generated using pymatgen
data_Mo
_symmetry_space_group_name_H-M   'P 1'
_cell_length_a   12.39185057
_cell_length_b   12.39185057
_cell_length_c   12.39185057
_cell_angle_alpha   90.00000000
_cell_angle_beta   90.00000000
_cell_angle_gamma   90.00000000
_symmetry_Int_Tables_number   1
_chemical_formula_structural   Mo
_chemical_formula_sum   Mo128
_cell_volume   1902.86730230
_cell_formula_units_Z   128
loop_
 _symmetry_equiv_pos_site_id
 _symmetry_equiv_pos_as_xyz
  1  'x, y, z'
loop_
 _atom_site_type_symbol
 _atom_site_label
 _atom_site_symmetry_multiplicity
 _atom_site_fract_x
 _atom_site_fract_y
 _atom_site_fract_z
 _atom_site_occupancy
  Mo  Mo0  1  5.34346923  1.35740411  3.04679661  1
  Mo  Mo1  1  0.98852115  5.59576453  1.43534964  1
  Mo  Mo2  1  3.79237296  3.61117193  2.17448182  1
  Mo  Mo3  1  2.86842546  0.39672291  4.49775522  1
  Mo  Mo4  1  0.71658458  0.75840310  5.76274670  1
  Mo  Mo5  1  5.09492724  5.80114357  2.59755231  1
  Mo  Mo6  1  5.18174962  5.15291474  5.12375219  1
  Mo  Mo7  1  1.87860653  2.31098084  3.81002737  1
  Mo  Mo8  1  0.82636962  5.58616283  4.28756044  1
  Mo  Mo9  1  3.24863086  5.51072943  1.62688714  1
  Mo  Mo10  1  3.03516932  5.46434935  4.32013869  1
  Mo  Mo11  1  3.79720856  2.66887496  4.73839344  1
  Mo  Mo12  1  3.43628598  1.18221035  1.75019002  1
  Mo  Mo13  1  5.47700930  0.03586080  5.17767858  1
  Mo  Mo14  1  5.73918431  5.83517151  0.32725904  1
  Mo  Mo15  1  0.00091449  0.32743579  3.66872254  1
  Mo  Mo16  1  3.00687063  1.61174485  9.77659420  1
  Mo  Mo17  1  4.45047157  2.08775873  11.45948297  1
  Mo  Mo18  1  0.61133229  0.49207264  12.03052089  1
  Mo  Mo19  1  5.78184088  1.34011708  7.20081699  1
  Mo  Mo20  1  1.73418388  4.12890901  6.35640372  1
  Mo  Mo21  1  6.13695477  3.80755496  9.27686899  1
  Mo  Mo22  1  4.01531704  3.76023159  9.66198944  1
  Mo  Mo23  1  3.91339209  3.64468354  7.43026481  1
  Mo  Mo24  1  2.86249762  5.60935783  9.17187586  1
  Mo  Mo25  1  0.86458776  0.51410194  8.59224904  1
  Mo  Mo26  1  5.13997678  6.02872467  8.03927264  1
  Mo  Mo27  1  0.15414747  4.44121740  8.51698443  1
  Mo  Mo28  1  3.24117391  1.40742826  7.07430692  1
  Mo  Mo29  1  2.00651664  4.73525576  11.19466674  1
  Mo  Mo30  1  0.42148477  2.62471906  9.87721841  1
  Mo  Mo31  1  6.17422962  1.59442804  9.66680518  1
  Mo  Mo32  1  4.34619335  0.03815955  8.71441997  1
  Mo  Mo33  1  4.49102311  4.24164704  11.96081673  1
  Mo  Mo34  1  2.35012240  2.86774033  12.25413025  1
  Mo  Mo35  1  5.34110604  10.00949744  3.88554021  1
  Mo  Mo36  1  3.95784586  8.38403020  2.37569053  1
  Mo  Mo37  1  2.22191441  9.60427003  4.15448706  1
  Mo  Mo38  1  2.46683219  9.91320244  1.79639137  1
  Mo  Mo39  1  4.84890730  7.34805958  4.85912462  1
  Mo  Mo40  1  1.98724374  7.71466175  5.63364507  1
  Mo  Mo41  1  0.23086772  10.38730987  5.26989262  1
  Mo  Mo42  1  1.72169274  7.46266434  2.92525123  1
  Mo  Mo43  1  4.23073467  11.46156814  2.16736247  1
  Mo  Mo44  1  1.48957392  12.28312400  1.76470676  1
  Mo  Mo45  1  4.85583800  9.17302767  0.19765300  1
  Mo  Mo46  1  6.17162812  10.40826084  5.97775722  1
  Mo  Mo47  1  6.01014682  8.23965720  2.49889412  1
  Mo  Mo48  1  0.03381128  10.36755043  2.84653120  1
  Mo  Mo49  1  3.86098488  9.38528776  6.18823996  1
  Mo  Mo50  1  3.45807101  7.27485035  7.26373939  1
  Mo  Mo51  1  3.54782256  10.12596892  8.79835292  1
  Mo  Mo52  1  2.19504554  8.13390944  12.19832720  1
  Mo  Mo53  1  2.99993993  10.85726683  10.70365952  1
  Mo  Mo54  1  2.43010346  11.77205946  6.80989779  1
  Mo  Mo55  1  5.65783301  10.43655954  10.14632412  1
  Mo  Mo56  1  1.35376003  8.57540883  9.84201880  1
  Mo  Mo57  1  3.65460298  8.08282284  9.86488613  1
  Mo  Mo58  1  0.87839553  6.59794552  7.87418697  1
  Mo  Mo59  1  3.28910297  12.29215972  12.30208909  1
  Mo  Mo60  1  1.36091910  9.35443721  7.30276181  1
  Mo  Mo61  1  0.30816288  10.67963045  9.21303309  1
  Mo  Mo62  1  5.93171475  12.13011245  11.88177897  1
  Mo  Mo63  1  3.92112706  6.92554514  12.38847459  1
  Mo  Mo64  1  6.14633803  8.69636838  7.85252109  1
  Mo  Mo65  1  5.43297255  6.42909662  10.65530350  1
  Mo  Mo66  1  0.85791522  10.42543864  12.23129270  1
  Mo  Mo67  1  12.24856980  3.98574739  2.13671051  1
  Mo  Mo68  1  8.51150342  4.48741875  4.36148458  1
  Mo  Mo69  1  10.87921074  5.72176820  3.87282069  1
  Mo  Mo70  1  11.44925572  6.03153468  0.60755913  1
  Mo  Mo71  1  6.85044933  1.81222871  5.12662178  1
  Mo  Mo72  1  12.16982992  1.83134274  1.86622461  1
  Mo  Mo73  1  11.06151392  3.02057315  4.37409488  1
  Mo  Mo74  1  10.15814007  2.16620073  0.79717033  1
  Mo  Mo75  1  7.26838633  1.24437812  1.30228619  1
  Mo  Mo76  1  8.96013210  4.46198964  0.22964840  1
  Mo  Mo77  1  6.68998082  3.46857628  1.39777691  1
  Mo  Mo78  1  8.62464856  1.97833710  2.87481004  1
  Mo  Mo79  1  9.93125403  4.02912879  2.19498597  1
  Mo  Mo80  1  10.72053944  0.13006975  5.79174046  1
  Mo  Mo81  1  7.59240145  5.68817715  2.83751534  1
  Mo  Mo82  1  9.32000217  2.07781943  5.76088991  1
  Mo  Mo83  1  10.51887399  3.19419807  8.50746217  1
  Mo  Mo84  1  11.59323155  4.84354544  6.45331435  1
  Mo  Mo85  1  8.58296508  1.02710370  11.18146068  1
  Mo  Mo86  1  8.17116442  5.30628375  8.47780315  1
  Mo  Mo87  1  10.32922307  0.20820295  8.21437703  1
  Mo  Mo88  1  7.21761748  3.29880396  11.70463905  1
  Mo  Mo89  1  10.71895075  1.09293540  10.45095712  1
  Mo  Mo90  1  8.13628256  2.35698360  8.62862031  1
  Mo  Mo91  1  9.12684618  3.25886804  10.59175555  1
  Mo  Mo92  1  11.99904480  2.05406838  7.25287666  1
  Mo  Mo93  1  10.12100424  5.52191982  10.72341896  1
  Mo  Mo94  1  11.09745823  3.49659696  12.06805390  1
  Mo  Mo95  1  7.25831796  4.38211781  6.61986956  1
  Mo  Mo96  1  8.17135308  0.07296119  7.13808325  1
  Mo  Mo97  1  12.30536578  6.11023485  10.41392058  1
  Mo  Mo98  1  9.79544014  5.59124667  6.23573212  1
  Mo  Mo99  1  11.37011866  11.82677027  1.19381778  1
  Mo  Mo100  1  9.94733960  12.37358054  3.21473200  1
  Mo  Mo101  1  12.37219043  8.10286030  0.85148496  1
  Mo  Mo102  1  8.47121998  12.11353040  4.82571230  1
  Mo  Mo103  1  8.28348543  6.58379617  0.59273855  1
  Mo  Mo104  1  9.95726897  8.63462758  1.05660385  1
  Mo  Mo105  1  8.52637761  9.17579796  5.60330092  1
  Mo  Mo106  1  9.45631252  7.22727875  3.46588542  1
  Mo  Mo107  1  7.05026792  7.37480930  4.91263398  1
  Mo  Mo108  1  8.05259785  9.47670744  3.28194389  1
  Mo  Mo109  1  10.59354283  10.33230118  4.41817134  1
  Mo  Mo110  1  7.20652638  10.23409973  1.18252809  1
  Mo  Mo111  1  6.75403517  11.65777244  2.91314733  1
  Mo  Mo112  1  8.82314655  11.93500038  0.98619768  1
  Mo  Mo113  1  12.35828931  8.22495181  4.06853845  1
  Mo  Mo114  1  7.32142902  12.02227952  9.83456185  1
  Mo  Mo115  1  10.99151188  10.05110149  6.97633385  1
  Mo  Mo116  1  8.32203123  7.38098536  7.08556682  1
  Mo  Mo117  1  8.03573778  10.20540386  8.01605777  1
  Mo  Mo118  1  8.71873925  10.03064699  11.67951775  1
  Mo  Mo119  1  9.99509986  10.51172485  9.84489832  1
  Mo  Mo120  1  11.13896299  9.83344976  11.92993640  1
  Mo  Mo121  1  8.47226256  8.65351323  9.64728405  1
  Mo  Mo122  1  10.38800493  6.61388215  8.77465152  1
  Mo  Mo123  1  11.13846652  8.62934515  9.28946936  1
  Mo  Mo124  1  7.69202280  6.25952288  10.49593715  1
  Mo  Mo125  1  10.27063981  7.86331431  11.24848391  1
  Mo  Mo126  1  6.66898021  8.29771421  11.47685936  1
  Mo  Mo127  1  11.14204109  7.60554794  6.32960436  1
