# generated using pymatgen
data_Mo
_symmetry_space_group_name_H-M   'P 1'
_cell_length_a   12.39185057
_cell_length_b   12.39185057
_cell_length_c   12.39185057
_cell_angle_alpha   90.00000000
_cell_angle_beta   90.00000000
_cell_angle_gamma   90.00000000
_symmetry_Int_Tables_number   1
_chemical_formula_structural   Mo
_chemical_formula_sum   Mo128
_cell_volume   1902.86730230
_cell_formula_units_Z   128
loop_
 _symmetry_equiv_pos_site_id
 _symmetry_equiv_pos_as_xyz
  1  'x, y, z'
loop_
 _atom_site_type_symbol
 _atom_site_label
 _atom_site_symmetry_multiplicity
 _atom_site_fract_x
 _atom_site_fract_y
 _atom_site_fract_z
 _atom_site_occupancy
  Mo  Mo0  1  1.65571209  2.72292051  5.92544932  1
  Mo  Mo1  1  2.09048930  0.74391019  3.80983871  1
  Mo  Mo2  1  0.89650869  4.61266779  2.35918792  1
  Mo  Mo3  1  3.31579311  5.24203081  2.43290354  1
  Mo  Mo4  1  3.46704716  0.00814315  1.87211273  1
  Mo  Mo5  1  4.64842344  5.18550293  4.79294538  1
  Mo  Mo6  1  0.04464968  2.20791400  2.65282910  1
  Mo  Mo7  1  5.77703506  3.44438834  4.37056002  1
  Mo  Mo8  1  4.56088614  2.83318613  2.45332825  1
  Mo  Mo9  1  3.71167699  2.10987143  0.43796950  1
  Mo  Mo10  1  2.10398332  3.44155847  0.20018697  1
  Mo  Mo11  1  3.79762559  1.87220209  5.73689063  1
  Mo  Mo12  1  2.38479576  2.82163828  3.28431701  1
  Mo  Mo13  1  2.01225582  4.95034572  4.25643187  1
  Mo  Mo14  1  0.21386269  5.34452175  6.14814517  1
  Mo  Mo15  1  2.58290650  0.13125432  11.76272585  1
  Mo  Mo16  1  0.86862007  5.42402619  12.27895367  1
  Mo  Mo17  1  3.89132903  2.06704607  10.56891800  1
  Mo  Mo18  1  1.21387510  0.57627666  7.59401994  1
  Mo  Mo19  1  4.69470422  3.97845923  7.05867809  1
  Mo  Mo20  1  3.54980844  1.91177062  8.04760337  1
  Mo  Mo21  1  1.30220675  1.66891815  9.55547712  1
  Mo  Mo22  1  4.14254203  5.93594466  8.95377731  1
  Mo  Mo23  1  5.72863933  3.99007659  9.44811086  1
  Mo  Mo24  1  0.63998149  1.01503952  11.77037146  1
  Mo  Mo25  1  2.63630663  4.10206000  9.88887549  1
  Mo  Mo26  1  5.20870786  0.10954873  10.53188146  1
  Mo  Mo27  1  4.36173281  4.31974152  11.57525939  1
  Mo  Mo28  1  2.47171744  4.91431204  7.39639574  1
  Mo  Mo29  1  2.36147167  10.78279658  3.43893712  1
  Mo  Mo30  1  4.23544119  9.51979097  5.81779512  1
  Mo  Mo31  1  4.78604447  12.28957809  3.96293963  1
  Mo  Mo32  1  0.37619295  11.57873467  2.19460865  1
  Mo  Mo33  1  5.71476800  8.54544200  4.42832908  1
  Mo  Mo34  1  4.62551639  10.05487465  2.75498243  1
  Mo  Mo35  1  1.19935836  7.06059446  1.25601534  1
  Mo  Mo36  1  3.51452940  8.20041634  1.64527633  1
  Mo  Mo37  1  2.63785561  8.04713669  3.99112910  1
  Mo  Mo38  1  2.97726125  11.93837636  5.81300916  1
  Mo  Mo39  1  1.82870153  9.94535373  0.93112246  1
  Mo  Mo40  1  0.65214199  9.06784588  4.96574617  1
  Mo  Mo41  1  0.23892044  9.49873078  2.58671937  1
  Mo  Mo42  1  5.48910326  6.67931668  2.91322676  1
  Mo  Mo43  1  0.60722947  11.93917071  5.48792167  1
  Mo  Mo44  1  0.12676128  8.71819313  9.66727186  1
  Mo  Mo45  1  0.27384798  7.75275081  7.17857521  1
  Mo  Mo46  1  1.38249562  10.72212814  9.90093967  1
  Mo  Mo47  1  3.02402857  6.31281380  11.46663211  1
  Mo  Mo48  1  3.14208875  11.74634240  8.82208411  1
  Mo  Mo49  1  5.83096146  7.14279970  9.67056841  1
  Mo  Mo50  1  4.69792134  9.90698665  10.71487970  1
  Mo  Mo51  1  2.24974643  9.92358855  7.28278392  1
  Mo  Mo52  1  4.33010778  9.34002970  8.28608692  1
  Mo  Mo53  1  5.18212694  6.48224853  6.24385434  1
  Mo  Mo54  1  4.85528195  8.06382796  11.83620317  1
  Mo  Mo55  1  2.28522406  7.84977066  8.34937671  1
  Mo  Mo56  1  2.22331445  8.49605333  10.91247412  1
  Mo  Mo57  1  6.02295571  9.82329201  7.07898365  1
  Mo  Mo58  1  3.94182979  10.99051895  12.13557360  1
  Mo  Mo59  1  0.97356058  6.24621753  9.57132439  1
  Mo  Mo60  1  4.91205808  12.31877043  7.63820563  1
  Mo  Mo61  1  2.67211193  6.97254083  6.41236564  1
  Mo  Mo62  1  8.08984290  4.01197085  3.97887626  1
  Mo  Mo63  1  11.79956380  4.02896992  4.48390375  1
  Mo  Mo64  1  8.74065336  4.09420587  0.65462731  1
  Mo  Mo65  1  6.48788841  4.70034410  2.09118436  1
  Mo  Mo66  1  8.66366105  1.72395663  0.11949398  1
  Mo  Mo67  1  9.26527149  1.72756100  5.30629368  1
  Mo  Mo68  1  10.36427374  2.52175152  3.29930043  1
  Mo  Mo69  1  7.82137267  2.42001522  2.49465428  1
  Mo  Mo70  1  6.62993794  1.29460086  4.79326312  1
  Mo  Mo71  1  11.18106351  4.00084003  0.68587602  1
  Mo  Mo72  1  10.30400248  4.86518153  2.54086555  1
  Mo  Mo73  1  10.69919130  1.18384869  1.03928703  1
  Mo  Mo74  1  11.92725547  1.54068037  4.84612708  1
  Mo  Mo75  1  6.53537064  0.82947255  0.45782228  1
  Mo  Mo76  1  9.69475635  5.49593467  4.73222730  1
  Mo  Mo77  1  6.39376793  3.42758785  0.17959545  1
  Mo  Mo78  1  10.26051185  4.75768620  10.78359093  1
  Mo  Mo79  1  7.99878067  5.89592931  9.90851577  1
  Mo  Mo80  1  11.21204313  0.43388357  7.27200062  1
  Mo  Mo81  1  6.63086137  1.02509797  8.86609106  1
  Mo  Mo82  1  10.21990074  3.60549233  6.63061313  1
  Mo  Mo83  1  6.59490713  5.86723344  12.29225902  1
  Mo  Mo84  1  10.68290714  1.92098507  11.15723302  1
  Mo  Mo85  1  7.82119394  2.30182596  10.64845224  1
  Mo  Mo86  1  8.95595184  4.13684257  8.79155130  1
  Mo  Mo87  1  12.38182191  3.78467770  10.69998565  1
  Mo  Mo88  1  9.00212340  6.13796757  7.13725911  1
  Mo  Mo89  1  11.22802941  1.69759416  9.12503904  1
  Mo  Mo90  1  11.39821877  5.66036499  8.01459816  1
  Mo  Mo91  1  6.92134501  5.65564854  7.90845322  1
  Mo  Mo92  1  7.72763944  3.44138968  6.31574296  1
  Mo  Mo93  1  12.29424489  2.98313944  7.48061663  1
  Mo  Mo94  1  6.20545748  2.07871307  7.05384249  1
  Mo  Mo95  1  8.92348281  8.66640155  0.38103451  1
  Mo  Mo96  1  8.85582410  12.06815319  1.64775867  1
  Mo  Mo97  1  11.34052915  7.15942146  1.47135353  1
  Mo  Mo98  1  9.98407826  8.36754745  2.96736167  1
  Mo  Mo99  1  10.28295222  10.86997642  2.21799231  1
  Mo  Mo100  1  6.63045426  11.20290811  5.06500012  1
  Mo  Mo101  1  7.66460781  9.98100016  2.83238185  1
  Mo  Mo102  1  10.83750739  7.36802754  6.07769631  1
  Mo  Mo103  1  8.60118547  8.59437392  5.05781126  1
  Mo  Mo104  1  10.91118330  9.92420418  4.72150358  1
  Mo  Mo105  1  6.31445215  10.22347531  0.51280417  1
  Mo  Mo106  1  6.59532416  12.14262345  2.50907172  1
  Mo  Mo107  1  8.08339874  6.66232753  1.69609483  1
  Mo  Mo108  1  9.16458771  11.15643868  5.75425709  1
  Mo  Mo109  1  12.36067236  6.33029942  3.63523079  1
  Mo  Mo110  1  9.21346998  12.19366040  3.99883429  1
  Mo  Mo111  1  7.17906175  6.26087328  4.97558617  1
  Mo  Mo112  1  6.35611577  10.35772036  9.00398019  1
  Mo  Mo113  1  9.45674941  12.17608542  11.35969283  1
  Mo  Mo114  1  7.69375051  11.11334522  10.87136654  1
  Mo  Mo115  1  11.87145243  11.38471483  11.73432786  1
  Mo  Mo116  1  11.74356217  11.48639156  9.34375321  1
  Mo  Mo117  1  12.19227029  10.28900914  7.02220753  1
  Mo  Mo118  1  9.53971921  12.19683780  9.24195734  1
  Mo  Mo119  1  10.13808275  7.84170801  8.92778222  1
  Mo  Mo120  1  10.00353982  10.03173922  10.57239328  1
  Mo  Mo121  1  7.50347404  8.64982944  10.58540075  1
  Mo  Mo122  1  9.55937936  9.78935344  7.79565561  1
  Mo  Mo123  1  7.47430156  7.90212821  7.32818099  1
  Mo  Mo124  1  9.48452186  6.40655696  11.90610592  1
  Mo  Mo125  1  11.78030083  9.11029393  12.27726567  1
  Mo  Mo126  1  11.64277909  6.73720489  10.59681953  1
  Mo  Mo127  1  8.21694874  12.32373511  7.07225154  1
