# generated using pymatgen
data_Mo
_symmetry_space_group_name_H-M   'P 1'
_cell_length_a   12.78902527
_cell_length_b   12.78902527
_cell_length_c   12.78902527
_cell_angle_alpha   90.00000000
_cell_angle_beta   90.00000000
_cell_angle_gamma   90.00000000
_symmetry_Int_Tables_number   1
_chemical_formula_structural   Mo
_chemical_formula_sum   Mo128
_cell_volume   2091.76232486
_cell_formula_units_Z   128
loop_
 _symmetry_equiv_pos_site_id
 _symmetry_equiv_pos_as_xyz
  1  'x, y, z'
loop_
 _atom_site_type_symbol
 _atom_site_label
 _atom_site_symmetry_multiplicity
 _atom_site_fract_x
 _atom_site_fract_y
 _atom_site_fract_z
 _atom_site_occupancy
  Mo  Mo0  1  4.93999932  2.98776652  5.45250362  1
  Mo  Mo1  1  4.54261610  5.55636480  0.09734901  1
  Mo  Mo2  1  2.85240939  3.01578720  1.30070742  1
  Mo  Mo3  1  1.91442176  5.96406463  2.57096147  1
  Mo  Mo4  1  3.03162454  1.32361447  4.15008835  1
  Mo  Mo5  1  2.43768950  4.08739432  4.15863753  1
  Mo  Mo6  1  4.52216160  5.72876841  5.90868854  1
  Mo  Mo7  1  4.99938686  4.75668333  3.02548819  1
  Mo  Mo8  1  1.67045720  5.76942917  5.90003014  1
  Mo  Mo9  1  5.40007656  1.97375966  3.01693900  1
  Mo  Mo10  1  1.36022405  2.78498898  6.01804067  1
  Mo  Mo11  1  2.64189687  0.38539450  0.99845747  1
  Mo  Mo12  1  0.36852450  1.05882803  4.47881992  1
  Mo  Mo13  1  5.48675000  1.10520810  0.46543513  1
  Mo  Mo14  1  0.60469053  1.78074269  2.04181555  1
  Mo  Mo15  1  5.34897010  0.20114515  4.94408029  1
  Mo  Mo16  1  2.15523871  5.42160342  0.09686932  1
  Mo  Mo17  1  0.84168666  4.90825513  7.56302046  1
  Mo  Mo18  1  1.14469720  5.97669478  10.12447952  1
  Mo  Mo19  1  0.54093506  0.47926574  7.02787720  1
  Mo  Mo20  1  1.80129648  2.95321232  11.25533518  1
  Mo  Mo21  1  3.54397990  3.41760884  7.18428459  1
  Mo  Mo22  1  3.43116243  5.04992734  10.87176371  1
  Mo  Mo23  1  6.04613085  1.58831155  7.29558287  1
  Mo  Mo24  1  0.40687966  0.58777089  10.07364116  1
  Mo  Mo25  1  5.27436084  4.20366721  9.20068096  1
  Mo  Mo26  1  4.43138733  1.88663939  9.56400644  1
  Mo  Mo27  1  1.91430261  1.92075670  8.51215876  1
  Mo  Mo28  1  5.01328798  3.08390266  11.97263268  1
  Mo  Mo29  1  6.31375709  1.11892056  10.93322650  1
  Mo  Mo30  1  3.69130192  0.57422128  11.32335134  1
  Mo  Mo31  1  3.80715778  5.94999471  8.47424844  1
  Mo  Mo32  1  3.71523170  7.52519949  1.84820281  1
  Mo  Mo33  1  3.84763981  10.30370460  5.11924426  1
  Mo  Mo34  1  2.93974810  7.19761973  4.33016736  1
  Mo  Mo35  1  4.10165289  11.98395216  2.95392724  1
  Mo  Mo36  1  5.98215593  8.55547066  5.25248644  1
  Mo  Mo37  1  4.72380720  9.46332266  2.76657000  1
  Mo  Mo38  1  0.21355686  11.69788708  3.50985266  1
  Mo  Mo39  1  0.64130110  10.42226125  0.34493431  1
  Mo  Mo40  1  0.62562164  9.15544276  4.63628975  1
  Mo  Mo41  1  1.98343086  11.96985246  4.89892152  1
  Mo  Mo42  1  3.31572360  9.81851599  0.28321038  1
  Mo  Mo43  1  1.28835528  8.23232933  0.85636028  1
  Mo  Mo44  1  2.36239510  10.26180267  2.74867728  1
  Mo  Mo45  1  6.09728695  7.34239984  2.29853934  1
  Mo  Mo46  1  5.59155448  8.73609578  0.25577355  1
  Mo  Mo47  1  5.02455781  7.16894372  10.29466887  1
  Mo  Mo48  1  5.15902130  12.09625330  9.71310582  1
  Mo  Mo49  1  0.83914673  8.55312733  6.83241760  1
  Mo  Mo50  1  4.05551112  10.47637630  8.32976621  1
  Mo  Mo51  1  1.35833747  12.57703328  11.92149644  1
  Mo  Mo52  1  2.80999113  8.52786702  8.88298092  1
  Mo  Mo53  1  2.18647650  10.86173505  7.14452741  1
  Mo  Mo54  1  4.16539943  8.32651931  6.69847043  1
  Mo  Mo55  1  0.06134125  7.80256644  9.05299155  1
  Mo  Mo56  1  6.08225389  7.54454190  7.86476400  1
  Mo  Mo57  1  2.73695070  7.66985052  11.66660957  1
  Mo  Mo58  1  3.67808594  10.22933364  10.67992833  1
  Mo  Mo59  1  1.01076989  9.81257823  10.76313643  1
  Mo  Mo60  1  2.05606419  12.13219761  9.18438687  1
  Mo  Mo61  1  0.14338503  10.69373015  8.84060238  1
  Mo  Mo62  1  6.27054448  9.86876852  9.64922027  1
  Mo  Mo63  1  6.21760110  10.21295018  6.90301540  1
  Mo  Mo64  1  3.63664076  12.78833022  7.16466416  1
  Mo  Mo65  1  5.23409725  11.67763117  12.71594513  1
  Mo  Mo66  1  10.22943293  3.10715724  5.93662978  1
  Mo  Mo67  1  12.53413841  3.51420173  3.98716729  1
  Mo  Mo68  1  9.18512164  5.87194989  5.63291029  1
  Mo  Mo69  1  10.63127443  0.71238545  0.91679240  1
  Mo  Mo70  1  9.13327048  4.99210864  1.35682820  1
  Mo  Mo71  1  12.74801698  4.51517133  1.23679208  1
  Mo  Mo72  1  7.27422480  3.33904768  3.53143911  1
  Mo  Mo73  1  11.80820235  4.72766972  5.91070421  1
  Mo  Mo74  1  10.25892315  4.75087465  3.59272316  1
  Mo  Mo75  1  7.89180167  0.84415113  4.86495316  1
  Mo  Mo76  1  10.44847478  1.81799767  3.63643224  1
  Mo  Mo77  1  10.48412121  2.81690197  0.74163240  1
  Mo  Mo78  1  7.66615679  3.48386751  6.05438215  1
  Mo  Mo79  1  8.28036761  1.62198203  2.12558962  1
  Mo  Mo80  1  6.54505178  5.90449835  4.99460091  1
  Mo  Mo81  1  8.10191701  6.36630330  3.27803172  1
  Mo  Mo82  1  12.19961802  6.03474186  3.49292309  1
  Mo  Mo83  1  6.60152009  3.90646139  1.24487458  1
  Mo  Mo84  1  10.37271370  5.45259298  11.93351097  1
  Mo  Mo85  1  6.65761108  5.73919424  12.02446398  1
  Mo  Mo86  1  9.95111276  2.88166130  10.86779196  1
  Mo  Mo87  1  11.23388774  1.42028679  8.11673163  1
  Mo  Mo88  1  8.30388035  5.00714170  10.13838063  1
  Mo  Mo89  1  8.40081083  0.95158490  12.20249754  1
  Mo  Mo90  1  7.37376671  3.28716674  11.59839482  1
  Mo  Mo91  1  12.52003871  4.73044002  11.51578248  1
  Mo  Mo92  1  10.47866005  4.26917125  8.24252679  1
  Mo  Mo93  1  9.64720461  0.86357397  9.54946985  1
  Mo  Mo94  1  12.74017278  1.95669108  12.53880521  1
  Mo  Mo95  1  7.16048390  4.81860287  7.56341763  1
  Mo  Mo96  1  8.10679233  2.60154392  8.72672246  1
  Mo  Mo97  1  8.81317746  0.95639270  7.27956680  1
  Mo  Mo98  1  12.43315674  3.45829939  9.52651315  1
  Mo  Mo99  1  6.59636675  10.65689220  4.19462156  1
  Mo  Mo100  1  6.84797692  12.42918499  2.40640206  1
  Mo  Mo101  1  11.95197960  9.29098855  2.57175582  1
  Mo  Mo102  1  10.11226639  9.96680116  4.94743641  1
  Mo  Mo103  1  10.76720747  12.68794431  5.29935305  1
  Mo  Mo104  1  8.61944558  8.15455259  5.26269383  1
  Mo  Mo105  1  6.89295695  10.14989870  1.50578857  1
  Mo  Mo106  1  9.19703688  11.86847361  2.98438061  1
  Mo  Mo107  1  9.09083237  8.91747554  2.34582299  1
  Mo  Mo108  1  10.94186504  7.34877449  1.42496352  1
  Mo  Mo109  1  10.92011973  11.19883707  1.81203012  1
  Mo  Mo110  1  8.65779279  7.81806619  0.34572072  1
  Mo  Mo111  1  8.44452984  11.22534849  5.79084681  1
  Mo  Mo112  1  12.51686131  10.80940728  5.85278621  1
  Mo  Mo113  1  11.13896299  9.19822840  9.98785142  1
  Mo  Mo114  1  6.91713496  12.23397363  8.29346444  1
  Mo  Mo115  1  10.73076669  9.19912205  7.20758882  1
  Mo  Mo116  1  8.32531785  7.11868126  7.77123929  1
  Mo  Mo117  1  8.48708711  9.97891499  8.11229320  1
  Mo  Mo118  1  9.45711680  11.23617150  10.26031326  1
  Mo  Mo119  1  7.81166175  7.62603222  10.28454092  1
  Mo  Mo120  1  11.08494723  12.39800678  11.56195404  1
  Mo  Mo121  1  11.19893637  9.91515852  12.18045434  1
  Mo  Mo122  1  10.70008495  12.00956993  8.10728880  1
  Mo  Mo123  1  12.30576296  7.17604322  11.46841940  1
  Mo  Mo124  1  11.20131942  6.91108798  6.45276823  1
  Mo  Mo125  1  7.11909830  9.84128403  11.65936114  1
  Mo  Mo126  1  10.12914632  6.69273126  9.02011541  1
  Mo  Mo127  1  8.69383640  11.22048310  12.61833944  1
