# generated using pymatgen
data_Mo
_symmetry_space_group_name_H-M   'P 1'
_cell_length_a   13.02733009
_cell_length_b   13.02733009
_cell_length_c   13.02733009
_cell_angle_alpha   90.00000000
_cell_angle_beta   90.00000000
_cell_angle_gamma   90.00000000
_symmetry_Int_Tables_number   1
_chemical_formula_structural   Mo
_chemical_formula_sum   Mo128
_cell_volume   2210.88550621
_cell_formula_units_Z   128
loop_
 _symmetry_equiv_pos_site_id
 _symmetry_equiv_pos_as_xyz
  1  'x, y, z'
loop_
 _atom_site_type_symbol
 _atom_site_label
 _atom_site_symmetry_multiplicity
 _atom_site_fract_x
 _atom_site_fract_y
 _atom_site_fract_z
 _atom_site_occupancy
  Mo  Mo0  1  1.97400790  5.44968368  0.97036431  1
  Mo  Mo1  1  3.36418884  0.79505637  3.40140411  1
  Mo  Mo2  1  3.48540656  6.12401681  5.92654155  1
  Mo  Mo3  1  0.08831358  4.13317863  0.49810175  1
  Mo  Mo4  1  2.12612580  4.82968404  4.00643026  1
  Mo  Mo5  1  5.41000592  5.20812202  3.51036899  1
  Mo  Mo6  1  1.59245209  2.78174208  2.10717064  1
  Mo  Mo7  1  6.23664562  0.51064949  4.47601983  1
  Mo  Mo8  1  1.81690544  2.11954263  5.19947355  1
  Mo  Mo9  1  4.17735439  2.84932135  4.00424580  1
  Mo  Mo10  1  5.72380372  4.08134734  6.16653436  1
  Mo  Mo11  1  3.35036716  4.10098763  1.98327199  1
  Mo  Mo12  1  5.09395416  5.35914770  0.33717550  1
  Mo  Mo13  1  2.09254468  1.27489106  0.29711150  1
  Mo  Mo14  1  0.04419065  3.90973808  3.16660436  1
  Mo  Mo15  1  0.03037840  1.19969596  1.91157203  1
  Mo  Mo16  1  3.28883487  3.69172889  6.27645246  1
  Mo  Mo17  1  2.96953620  0.74966625  8.98849038  1
  Mo  Mo18  1  1.83290165  1.31597879  10.94643255  1
  Mo  Mo19  1  5.00779704  2.91054583  12.44944090  1
  Mo  Mo20  1  0.80483977  4.98110690  8.94661823  1
  Mo  Mo21  1  4.63740184  6.05262466  7.95221194  1
  Mo  Mo22  1  0.94850779  5.51037197  6.64926049  1
  Mo  Mo23  1  3.42891839  3.96002040  9.88025679  1
  Mo  Mo24  1  5.47849870  5.14366057  10.33160612  1
  Mo  Mo25  1  5.00663530  2.32048324  8.95017295  1
  Mo  Mo26  1  2.24331220  3.63468467  12.46453354  1
  Mo  Mo27  1  1.06658286  5.18697247  11.32414569  1
  Mo  Mo28  1  4.61106916  0.48808699  11.15038176  1
  Mo  Mo29  1  5.72655416  0.37802293  6.97477494  1
  Mo  Mo30  1  1.36535753  2.40389986  7.66341629  1
  Mo  Mo31  1  3.89111059  11.51191003  3.57568437  1
  Mo  Mo32  1  4.58861886  8.49252840  4.38771797  1
  Mo  Mo33  1  3.61406137  12.88186486  5.85290536  1
  Mo  Mo34  1  1.69895449  12.39185057  2.13824956  1
  Mo  Mo35  1  2.27875011  8.83473412  0.13611773  1
  Mo  Mo36  1  1.96217209  9.59577049  2.53349796  1
  Mo  Mo37  1  6.25714977  6.62193487  5.86667739  1
  Mo  Mo38  1  4.41873731  8.06791886  1.68962088  1
  Mo  Mo39  1  1.82177083  7.80437359  5.46191666  1
  Mo  Mo40  1  3.38924064  11.90084335  0.35203877  1
  Mo  Mo41  1  5.96545474  12.79021679  1.51587681  1
  Mo  Mo42  1  1.30135283  10.10223773  5.23623206  1
  Mo  Mo43  1  6.16143066  9.44016737  1.51542006  1
  Mo  Mo44  1  1.37786853  12.60294892  4.44846584  1
  Mo  Mo45  1  3.74723405  9.34844980  6.50281225  1
  Mo  Mo46  1  5.56220327  11.19585826  5.41028395  1
  Mo  Mo47  1  2.63014050  7.02982335  3.25148059  1
  Mo  Mo48  1  1.24556964  11.40566580  0.00250860  1
  Mo  Mo49  1  6.39717371  11.58975627  12.12683576  1
  Mo  Mo50  1  4.42309631  8.42151356  9.45181452  1
  Mo  Mo51  1  4.68109106  9.63380989  12.16317724  1
  Mo  Mo52  1  3.56997498  11.19973072  7.99723169  1
  Mo  Mo53  1  2.18971347  11.39702725  10.72351825  1
  Mo  Mo54  1  1.02727250  12.31718173  7.45631947  1
  Mo  Mo55  1  3.33753842  6.75979420  11.76560537  1
  Mo  Mo56  1  6.17324661  8.84160524  7.74030931  1
  Mo  Mo57  1  5.58527912  11.96727082  9.02498080  1
  Mo  Mo58  1  0.60886583  7.29050897  12.17668118  1
  Mo  Mo59  1  1.94055586  8.82963043  10.48501485  1
  Mo  Mo60  1  6.18363273  7.64506682  11.68011351  1
  Mo  Mo61  1  2.43271488  7.71713417  8.29444745  1
  Mo  Mo62  1  8.96998203  3.17116194  0.71341214  1
  Mo  Mo63  1  10.48938377  0.15062453  3.43055674  1
  Mo  Mo64  1  10.39455831  4.46266483  5.36045838  1
  Mo  Mo65  1  9.25870818  2.61326057  3.38380927  1
  Mo  Mo66  1  12.34885641  2.10660467  4.97388825  1
  Mo  Mo67  1  7.94314643  0.91854592  2.30268982  1
  Mo  Mo68  1  7.82077690  5.27435091  3.39715434  1
  Mo  Mo69  1  9.62531036  5.82098244  1.78648186  1
  Mo  Mo70  1  12.13537501  5.59430491  4.91410353  1
  Mo  Mo71  1  7.17931991  2.83237192  4.19571379  1
  Mo  Mo72  1  11.15961607  2.14423697  1.34684919  1
  Mo  Mo73  1  8.31041387  3.86926598  6.06226607  1
  Mo  Mo74  1  7.91741944  1.21790642  6.01504200  1
  Mo  Mo75  1  6.64526888  3.22331098  1.56533499  1
  Mo  Mo76  1  10.28473951  2.32675860  7.45816633  1
  Mo  Mo77  1  7.68991777  2.09753916  8.24364881  1
  Mo  Mo78  1  10.90621862  4.54053093  10.54121507  1
  Mo  Mo79  1  12.56541592  0.98090334  7.05460705  1
  Mo  Mo80  1  11.42780829  4.33369228  7.88874342  1
  Mo  Mo81  1  8.77031238  5.77142497  10.76263996  1
  Mo  Mo82  1  8.88322915  2.30940207  10.97344043  1
  Mo  Mo83  1  12.36692786  2.18490766  12.24032843  1
  Mo  Mo84  1  11.10272080  1.42928280  10.23112092  1
  Mo  Mo85  1  10.80811647  4.65201787  12.75387531  1
  Mo  Mo86  1  9.01837777  4.01900084  8.61163116  1
  Mo  Mo87  1  6.90210190  6.38001576  8.48220186  1
  Mo  Mo88  1  6.89806065  4.15942195  12.31360716  1
  Mo  Mo89  1  7.23060509  1.47525577  12.80034475  1
  Mo  Mo90  1  12.64683673  2.72632628  9.41552268  1
  Mo  Mo91  1  9.75159205  0.80610279  12.69211464  1
  Mo  Mo92  1  6.77911675  3.10594585  10.02101551  1
  Mo  Mo93  1  12.08741617  12.37308407  0.53134130  1
  Mo  Mo94  1  12.80252921  7.15464543  1.68725769  1
  Mo  Mo95  1  12.67225591  9.35302724  0.48961909  1
  Mo  Mo96  1  10.06202380  9.13380667  1.17269801  1
  Mo  Mo97  1  10.23628419  10.78249870  3.29078103  1
  Mo  Mo98  1  8.11060521  12.19058229  4.35649011  1
  Mo  Mo99  1  6.89092143  6.82124706  1.71209104  1
  Mo  Mo100  1  12.76261315  8.78324042  3.59645661  1
  Mo  Mo101  1  9.99222034  9.53416869  5.15970643  1
  Mo  Mo102  1  8.56668092  6.77953379  6.38205128  1
  Mo  Mo103  1  9.47310308  11.94046153  0.82790966  1
  Mo  Mo104  1  12.11770074  11.66075125  5.37062605  1
  Mo  Mo105  1  8.51625959  7.78069205  3.04221917  1
  Mo  Mo106  1  10.86858631  7.17603329  4.19438326  1
  Mo  Mo107  1  7.55188963  8.96605000  4.97536772  1
  Mo  Mo108  1  12.29940816  11.40963755  2.96449209  1
  Mo  Mo109  1  12.18244021  8.12569785  6.32878022  1
  Mo  Mo110  1  8.45662381  9.84088685  7.32772423  1
  Mo  Mo111  1  10.39932441  11.20122012  9.31353815  1
  Mo  Mo112  1  11.17282213  10.24343334  7.15972927  1
  Mo  Mo113  1  8.21192448  9.79970977  12.43355392  1
  Mo  Mo114  1  12.77998955  7.44921005  8.58393816  1
  Mo  Mo115  1  7.48135141  8.57912241  9.87033736  1
  Mo  Mo116  1  10.68350290  11.51012274  11.76332161  1
  Mo  Mo117  1  8.88596966  7.46232674  12.93568203  1
  Mo  Mo118  1  8.39262903  12.94094459  10.05874710  1
  Mo  Mo119  1  12.70839881  10.10938688  11.08375571  1
  Mo  Mo120  1  9.88888542  7.17655954  8.37600727  1
  Mo  Mo121  1  10.18534654  8.39171553  10.45949637  1
  Mo  Mo122  1  8.58174377  10.69253863  10.08853521  1
  Mo  Mo123  1  11.30240038  7.24800134  12.43335533  1
  Mo  Mo124  1  8.09142167  12.41230507  7.86978826  1
  Mo  Mo125  1  12.64544662  12.82357947  10.46763846  1
  Mo  Mo126  1  12.73064059  10.21692193  8.85450349  1
  Mo  Mo127  1  10.29705192  12.93111452  6.78122178  1
