# generated using pymatgen
data_Mo
_symmetry_space_group_name_H-M   'P 1'
_cell_length_a   13.02733009
_cell_length_b   13.02733009
_cell_length_c   13.02733009
_cell_angle_alpha   90.00000000
_cell_angle_beta   90.00000000
_cell_angle_gamma   90.00000000
_symmetry_Int_Tables_number   1
_chemical_formula_structural   Mo
_chemical_formula_sum   Mo128
_cell_volume   2210.88550621
_cell_formula_units_Z   128
loop_
 _symmetry_equiv_pos_site_id
 _symmetry_equiv_pos_as_xyz
  1  'x, y, z'
loop_
 _atom_site_type_symbol
 _atom_site_label
 _atom_site_symmetry_multiplicity
 _atom_site_fract_x
 _atom_site_fract_y
 _atom_site_fract_z
 _atom_site_occupancy
  Mo  Mo0  1  2.86995458  5.48040514  0.30481867  1
  Mo  Mo1  1  2.72827243  1.05797410  1.25330462  1
  Mo  Mo2  1  1.00467326  2.79328993  3.22983457  1
  Mo  Mo3  1  2.72852067  3.90614365  5.01264257  1
  Mo  Mo4  1  3.88425932  5.75917213  3.65987548  1
  Mo  Mo5  1  5.75366133  4.63500887  0.69893413  1
  Mo  Mo6  1  0.34630357  4.77395050  1.75810373  1
  Mo  Mo7  1  5.31268819  2.25366853  1.73936701  1
  Mo  Mo8  1  5.27436084  0.56730944  4.38791656  1
  Mo  Mo9  1  3.54480404  3.74081968  1.71108817  1
  Mo  Mo10  1  2.71761822  0.74996115  3.87666336  1
  Mo  Mo11  1  6.49130411  6.20565607  3.50558304  1
  Mo  Mo12  1  5.69652775  2.91954184  3.58930746  1
  Mo  Mo13  1  6.36312590  2.49622312  5.49157568  1
  Mo  Mo14  1  5.47622488  5.11502428  5.62951445  1
  Mo  Mo15  1  0.94096544  0.37277328  2.33680712  1
  Mo  Mo16  1  0.77255940  3.09850876  9.82968653  1
  Mo  Mo17  1  2.19414197  4.65053840  7.45440310  1
  Mo  Mo18  1  5.34306213  2.19519448  10.95080148  1
  Mo  Mo19  1  2.47708923  1.87413832  6.66971498  1
  Mo  Mo20  1  1.31989096  4.76965109  11.89210551  1
  Mo  Mo21  1  0.26534646  4.18086939  6.55981674  1
  Mo  Mo22  1  3.70910528  3.44590754  12.33495530  1
  Mo  Mo23  1  3.23032111  3.04140497  9.12512840  1
  Mo  Mo24  1  3.00176693  5.18863068  10.38611835  1
  Mo  Mo25  1  0.39171752  6.08942289  8.76670802  1
  Mo  Mo26  1  6.28123841  2.75468455  8.78976402  1
  Mo  Mo27  1  3.04954705  1.16928231  11.23567503  1
  Mo  Mo28  1  4.63049100  0.42727955  7.23290871  1
  Mo  Mo29  1  2.90668331  0.53031759  9.03524777  1
  Mo  Mo30  1  0.34205380  0.59277033  11.42562383  1
  Mo  Mo31  1  5.40858602  6.22080828  10.21751769  1
  Mo  Mo32  1  1.20052010  2.46685205  12.82725334  1
  Mo  Mo33  1  5.06247806  7.01422432  1.29998257  1
  Mo  Mo34  1  0.87246373  10.32167675  5.22425725  1
  Mo  Mo35  1  4.32626511  11.88445990  2.91635451  1
  Mo  Mo36  1  2.76789061  11.88614789  6.19350252  1
  Mo  Mo37  1  3.46524995  8.80085512  3.93214866  1
  Mo  Mo38  1  5.10969221  10.61419592  5.33128590  1
  Mo  Mo39  1  2.67610354  6.86926548  6.06527467  1
  Mo  Mo40  1  2.20595792  10.53466169  2.30400049  1
  Mo  Mo41  1  0.10619061  11.35899777  0.10515697  1
  Mo  Mo42  1  4.98966601  9.90570576  1.76342587  1
  Mo  Mo43  1  2.91890636  11.51300226  0.14012621  1
  Mo  Mo44  1  1.01092876  6.89298674  3.51987140  1
  Mo  Mo45  1  2.82778456  8.17014170  1.41281991  1
  Mo  Mo46  1  5.45970241  8.07830498  5.07697494  1
  Mo  Mo47  1  0.64186609  6.83181191  0.21559933  1
  Mo  Mo48  1  6.17021815  12.93905801  1.94831069  1
  Mo  Mo49  1  0.74291726  12.89814902  5.15777020  1
  Mo  Mo50  1  1.60472479  11.63016880  10.45641827  1
  Mo  Mo51  1  4.42127923  11.08792604  8.48588565  1
  Mo  Mo52  1  4.15922337  9.63140699  12.43047581  1
  Mo  Mo53  1  6.27446658  7.62666770  12.15751750  1
  Mo  Mo54  1  3.88865803  7.08238942  8.24321191  1
  Mo  Mo55  1  1.69213301  11.14402697  8.09601897  1
  Mo  Mo56  1  3.65439447  7.10012327  11.91335436  1
  Mo  Mo57  1  4.19943730  11.81574867  10.82241475  1
  Mo  Mo58  1  3.34782525  8.94467208  6.64537810  1
  Mo  Mo59  1  2.68868405  9.28600401  9.76978265  1
  Mo  Mo60  1  5.08128429  9.19373040  10.01446213  1
  Mo  Mo61  1  1.41674201  7.56826316  10.37509675  1
  Mo  Mo62  1  1.63224900  8.98205615  12.28947879  1
  Mo  Mo63  1  5.92328472  8.48772259  7.60925159  1
  Mo  Mo64  1  6.43100306  10.39555125  12.24012984  1
  Mo  Mo65  1  4.91901856  12.99386812  12.88047474  1
  Mo  Mo66  1  8.81220439  0.60310581  3.11802989  1
  Mo  Mo67  1  9.43783397  3.32321034  3.55687815  1
  Mo  Mo68  1  12.78406059  2.19981164  5.18990164  1
  Mo  Mo69  1  9.32361646  6.31037118  4.10038193  1
  Mo  Mo70  1  10.02488796  1.65908808  5.34010318  1
  Mo  Mo71  1  11.86519692  2.51336121  1.71379889  1
  Mo  Mo72  1  10.23290821  5.17326002  1.53832711  1
  Mo  Mo73  1  11.90233276  4.38749952  4.18608230  1
  Mo  Mo74  1  7.99643734  4.30089558  5.96590156  1
  Mo  Mo75  1  9.01288683  1.89193174  1.37543584  1
  Mo  Mo76  1  7.64825415  4.27371890  2.33270629  1
  Mo  Mo77  1  10.64219674  4.12403369  6.18369231  1
  Mo  Mo78  1  12.04432271  0.31326459  3.56743307  1
  Mo  Mo79  1  12.71753383  6.27084236  6.07198692  1
  Mo  Mo80  1  11.11771414  0.06259920  0.84666326  1
  Mo  Mo81  1  11.31203186  4.10398629  8.75755315  1
  Mo  Mo82  1  9.14320978  3.97392151  10.26676735  1
  Mo  Mo83  1  12.90708545  1.58096381  8.64179658  1
  Mo  Mo84  1  10.15049446  6.40302210  6.95720989  1
  Mo  Mo85  1  7.34049340  0.43759120  11.32404640  1
  Mo  Mo86  1  10.29635687  0.51648002  9.20643999  1
  Mo  Mo87  1  6.90081108  2.12675135  12.69985955  1
  Mo  Mo88  1  11.60832419  4.54855386  12.51140016  1
  Mo  Mo89  1  6.77860043  4.68379185  11.39087104  1
  Mo  Mo90  1  11.55391125  2.82362415  10.95606404  1
  Mo  Mo91  1  7.64120429  6.39905036  8.08486829  1
  Mo  Mo92  1  9.32635696  2.34364846  7.54807676  1
  Mo  Mo93  1  9.68901718  1.14230422  11.93668837  1
  Mo  Mo94  1  8.74615423  4.53518893  12.88543943  1
  Mo  Mo95  1  10.22158873  6.43166833  9.41227578  1
  Mo  Mo96  1  10.62015354  8.06876286  1.63512851  1
  Mo  Mo97  1  8.05121766  12.16953204  0.19077790  1
  Mo  Mo98  1  7.97593320  12.41985139  5.56314656  1
  Mo  Mo99  1  8.72523306  8.89976155  3.21346105  1
  Mo  Mo100  1  11.48549791  12.08582747  6.09889551  1
  Mo  Mo101  1  7.19220823  11.21819934  3.44065490  1
  Mo  Mo102  1  10.30747776  9.10845699  5.70758907  1
  Mo  Mo103  1  7.46380622  10.10323067  5.71809434  1
  Mo  Mo104  1  7.26791965  8.81465694  1.47739058  1
  Mo  Mo105  1  12.36672927  10.94295728  3.67577239  1
  Mo  Mo106  1  12.02158446  8.05980657  4.18467233  1
  Mo  Mo107  1  10.50070325  10.25405776  0.60185471  1
  Mo  Mo108  1  9.90840655  11.38699859  2.81428062  1
  Mo  Mo109  1  7.77874589  7.05650356  5.72187743  1
  Mo  Mo110  1  7.87655016  6.70585788  1.54384784  1
  Mo  Mo111  1  12.69549063  9.36053384  1.80126669  1
  Mo  Mo112  1  8.97808440  8.49536820  7.50773374  1
  Mo  Mo113  1  11.47278832  11.54835081  10.81069810  1
  Mo  Mo114  1  10.35841541  9.24564113  9.91760115  1
  Mo  Mo115  1  8.72438906  12.40336864  7.75041741  1
  Mo  Mo116  1  7.22851000  8.59825631  9.71776270  1
  Mo  Mo117  1  9.16421039  9.45924169  11.98434933  1
  Mo  Mo118  1  6.64516959  10.85964988  8.08427253  1
  Mo  Mo119  1  12.57375658  12.13338914  8.07284383  1
  Mo  Mo120  1  12.10399821  6.79015821  10.87841639  1
  Mo  Mo121  1  12.84850218  8.58982627  7.54827534  1
  Mo  Mo122  1  10.64944517  10.70365952  7.92028903  1
  Mo  Mo123  1  9.06140172  11.47110033  10.29665475  1
  Mo  Mo124  1  11.75140637  8.96101582  12.08801193  1
  Mo  Mo125  1  12.81086988  9.72708637  9.64444425  1
  Mo  Mo126  1  9.37468319  6.91995490  12.76440044  1
  Mo  Mo127  1  8.24159343  6.72339314  10.77981777  1
