# generated using pymatgen
data_Mo
_symmetry_space_group_name_H-M   'P 1'
_cell_length_a   13.02733009
_cell_length_b   13.02733009
_cell_length_c   13.02733009
_cell_angle_alpha   90.00000000
_cell_angle_beta   90.00000000
_cell_angle_gamma   90.00000000
_symmetry_Int_Tables_number   1
_chemical_formula_structural   Mo
_chemical_formula_sum   Mo128
_cell_volume   2210.88550621
_cell_formula_units_Z   128
loop_
 _symmetry_equiv_pos_site_id
 _symmetry_equiv_pos_as_xyz
  1  'x, y, z'
loop_
 _atom_site_type_symbol
 _atom_site_label
 _atom_site_symmetry_multiplicity
 _atom_site_fract_x
 _atom_site_fract_y
 _atom_site_fract_z
 _atom_site_occupancy
  Mo  Mo0  1  3.00115131  2.98098477  2.44859194  1
  Mo  Mo1  1  1.08624301  1.34645201  2.08609059  1
  Mo  Mo2  1  0.93267045  6.15906747  5.23725479  1
  Mo  Mo3  1  3.30679710  3.01278853  5.78425371  1
  Mo  Mo4  1  2.79694394  0.63564434  4.16162627  1
  Mo  Mo5  1  2.88306134  5.14625214  5.05930067  1
  Mo  Mo6  1  0.74881828  3.42587007  3.96591844  1
  Mo  Mo7  1  4.30593970  6.23049934  2.90506482  1
  Mo  Mo8  1  5.61065858  3.57302330  1.61012637  1
  Mo  Mo9  1  5.24024353  1.68310722  4.05095354  1
  Mo  Mo10  1  3.37404871  4.74847175  1.08027546  1
  Mo  Mo11  1  0.80245474  1.34145754  5.69583270  1
  Mo  Mo12  1  3.78390321  0.31305409  1.79447500  1
  Mo  Mo13  1  6.23265402  4.46019242  5.11715909  1
  Mo  Mo14  1  1.08328406  3.28317513  0.84240456  1
  Mo  Mo15  1  1.03830402  5.34310185  12.06080546  1
  Mo  Mo16  1  3.20158552  2.14806971  7.81774845  1
  Mo  Mo17  1  0.46579656  0.36686034  12.27518051  1
  Mo  Mo18  1  4.71163379  0.83281676  6.80246070  1
  Mo  Mo19  1  4.94257102  2.81599840  9.41730997  1
  Mo  Mo20  1  0.82179715  2.90000084  9.65240760  1
  Mo  Mo21  1  5.15220976  1.81921899  11.66839686  1
  Mo  Mo22  1  4.44234935  4.65967341  7.28341940  1
  Mo  Mo23  1  2.75637254  2.00424282  12.29315266  1
  Mo  Mo24  1  5.54198708  4.31630596  12.03747145  1
  Mo  Mo25  1  3.76853254  4.58744720  10.01138402  1
  Mo  Mo26  1  0.92516484  4.07198394  7.07337356  1
  Mo  Mo27  1  2.46890743  5.70837349  8.72810264  1
  Mo  Mo28  1  2.13401965  0.45226581  9.82413601  1
  Mo  Mo29  1  4.54467148  6.43160875  12.03747145  1
  Mo  Mo30  1  5.01863991  6.43175769  8.72675225  1
  Mo  Mo31  1  3.63261936  10.11276286  5.54621699  1
  Mo  Mo32  1  6.43101299  8.99549058  5.74102125  1
  Mo  Mo33  1  5.66266861  8.12479428  1.04804473  1
  Mo  Mo34  1  4.25529000  11.03490322  1.08917217  1
  Mo  Mo35  1  5.04399951  9.47127608  3.21978605  1
  Mo  Mo36  1  0.89141393  10.30946363  4.62508943  1
  Mo  Mo37  1  5.40397880  12.21312196  4.24736636  1
  Mo  Mo38  1  2.58055323  9.03868333  1.87364185  1
  Mo  Mo39  1  2.89894833  11.02825054  3.35469637  1
  Mo  Mo40  1  3.12514925  7.89822597  4.48875921  1
  Mo  Mo41  1  1.09710574  11.06220898  0.54627805  1
  Mo  Mo42  1  5.21085260  6.84765918  4.76029762  1
  Mo  Mo43  1  1.92255391  6.53672104  2.04290778  1
  Mo  Mo44  1  1.94777451  7.86566757  6.47653914  1
  Mo  Mo45  1  4.71753184  12.95693087  10.05576829  1
  Mo  Mo46  1  3.20826799  10.63842358  8.56940156  1
  Mo  Mo47  1  2.40413816  10.51927117  11.39821877  1
  Mo  Mo48  1  2.96638860  7.28771881  10.37668545  1
  Mo  Mo49  1  5.60094766  11.08147195  7.00135586  1
  Mo  Mo50  1  4.59910427  8.33401598  7.57727903  1
  Mo  Mo51  1  4.97947848  10.31005939  11.94314246  1
  Mo  Mo52  1  5.20650354  8.32302417  10.33607434  1
  Mo  Mo53  1  2.02490583  7.77526068  12.77959237  1
  Mo  Mo54  1  3.04920945  12.80630237  12.21927817  1
  Mo  Mo55  1  0.60855008  10.07900301  8.81367393  1
  Mo  Mo56  1  1.07210359  12.40922697  7.98872223  1
  Mo  Mo57  1  0.03717317  7.67688051  10.42156619  1
  Mo  Mo58  1  2.89514538  12.17280873  6.53477488  1
  Mo  Mo59  1  9.42886775  4.43017594  3.57104736  1
  Mo  Mo60  1  7.02588139  5.55024831  0.23292608  1
  Mo  Mo61  1  11.25583164  3.04855411  2.11901638  1
  Mo  Mo62  1  7.80968580  3.25691196  2.11118211  1
  Mo  Mo63  1  7.21308969  5.72170863  2.74314663  1
  Mo  Mo64  1  8.06236834  2.34242714  4.73245568  1
  Mo  Mo65  1  11.47288762  1.33491409  4.53159450  1
  Mo  Mo66  1  12.05921676  5.52792709  3.18523185  1
  Mo  Mo67  1  9.90727460  5.79168088  1.92529442  1
  Mo  Mo68  1  11.68825560  3.59237564  5.59757167  1
  Mo  Mo69  1  9.44013758  1.33463607  2.11581912  1
  Mo  Mo70  1  11.10907559  5.82200517  5.54324811  1
  Mo  Mo71  1  6.54903345  0.40541012  1.35688778  1
  Mo  Mo72  1  11.76143503  1.21519571  1.01406644  1
  Mo  Mo73  1  12.50107361  4.56985236  0.94544557  1
  Mo  Mo74  1  7.36613103  2.01183879  0.11890715  1
  Mo  Mo75  1  9.60227422  3.25415159  0.03563034  1
  Mo  Mo76  1  9.05593064  3.92239802  6.15733976  1
  Mo  Mo77  1  11.01017909  3.80136896  8.14117773  1
  Mo  Mo78  1  12.30814601  0.65603629  10.23866724  1
  Mo  Mo79  1  12.62638223  2.08976446  7.89505850  1
  Mo  Mo80  1  10.22863858  0.35743538  9.32161072  1
  Mo  Mo81  1  8.49554693  3.07070653  8.71036879  1
  Mo  Mo82  1  6.82385848  6.14443159  6.96099298  1
  Mo  Mo83  1  10.40925377  0.20892283  11.62411188  1
  Mo  Mo84  1  11.13260819  3.08051674  10.78964784  1
  Mo  Mo85  1  6.73658927  4.57509506  9.08621521  1
  Mo  Mo86  1  7.10776889  1.36862429  10.67476506  1
  Mo  Mo87  1  8.16335994  3.39904092  11.23130611  1
  Mo  Mo88  1  12.69688074  5.15254736  9.86784509  1
  Mo  Mo89  1  9.08705921  5.93025513  8.25996276  1
  Mo  Mo90  1  9.69044701  5.65211369  10.52493091  1
  Mo  Mo91  1  9.95627603  1.34556830  6.83607161  1
  Mo  Mo92  1  6.51846093  2.52316149  6.91778037  1
  Mo  Mo93  1  12.51358462  8.52362718  5.87702379  1
  Mo  Mo94  1  11.08742957  10.71249666  5.23735408  1
  Mo  Mo95  1  9.77546225  8.60626930  6.23591085  1
  Mo  Mo96  1  12.52202458  10.36884125  2.38434893  1
  Mo  Mo97  1  10.68807041  8.28342585  1.05780530  1
  Mo  Mo98  1  7.03916689  8.38452667  2.92653211  1
  Mo  Mo99  1  9.89329405  7.51053382  3.43064610  1
  Mo  Mo100  1  7.46077776  12.96159768  5.88693330  1
  Mo  Mo101  1  9.29859445  10.16479275  1.37849408  1
  Mo  Mo102  1  8.30286755  10.25475282  4.44825732  1
  Mo  Mo103  1  8.22908242  7.77090169  0.35854946  1
  Mo  Mo104  1  10.53337087  11.74237065  2.98882897  1
  Mo  Mo105  1  8.54622642  12.09575684  0.40342126  1
  Mo  Mo106  1  11.62788504  11.73402998  0.58732804  1
  Mo  Mo107  1  12.94908667  7.87021523  2.43356881  1
  Mo  Mo108  1  6.65420531  11.10887701  2.38236306  1
  Mo  Mo109  1  8.22207229  6.68368560  5.30739584  1
  Mo  Mo110  1  7.74068663  12.83201943  3.46693794  1
  Mo  Mo111  1  13.01779790  12.34647336  3.79752630  1
  Mo  Mo112  1  7.29221682  10.11752896  12.46413637  1
  Mo  Mo113  1  11.75537812  9.62244077  7.65080599  1
  Mo  Mo114  1  8.93405758  11.33834469  7.06572795  1
  Mo  Mo115  1  10.37986285  11.20290811  8.89088469  1
  Mo  Mo116  1  6.96558035  10.01058967  9.64906140  1
  Mo  Mo117  1  11.61616839  12.60831078  6.68219620  1
  Mo  Mo118  1  7.85679072  8.44745900  7.72075839  1
  Mo  Mo119  1  10.32892519  9.27283767  11.17073696  1
  Mo  Mo120  1  8.59454272  11.63265114  10.96122731  1
  Mo  Mo121  1  12.24797404  10.77584602  10.63832428  1
  Mo  Mo122  1  12.40803544  6.68114369  7.87709628  1
  Mo  Mo123  1  11.14621143  7.11499747  11.83203284  1
  Mo  Mo124  1  10.46813492  8.23844582  9.26324590  1
  Mo  Mo125  1  7.52183344  6.86317878  11.33824539  1
  Mo  Mo126  1  12.64852472  8.91816067  12.67791565  1
  Mo  Mo127  1  6.64092975  12.32155065  11.48112899  1
