# generated using pymatgen
data_Mo
_symmetry_space_group_name_H-M   'P 1'
_cell_length_a   13.02733009
_cell_length_b   13.02733009
_cell_length_c   13.02733009
_cell_angle_alpha   90.00000000
_cell_angle_beta   90.00000000
_cell_angle_gamma   90.00000000
_symmetry_Int_Tables_number   1
_chemical_formula_structural   Mo
_chemical_formula_sum   Mo128
_cell_volume   2210.88550621
_cell_formula_units_Z   128
loop_
 _symmetry_equiv_pos_site_id
 _symmetry_equiv_pos_as_xyz
  1  'x, y, z'
loop_
 _atom_site_type_symbol
 _atom_site_label
 _atom_site_symmetry_multiplicity
 _atom_site_fract_x
 _atom_site_fract_y
 _atom_site_fract_z
 _atom_site_occupancy
  Mo  Mo0  1  0.56463249  0.73303257  2.16171266  1
  Mo  Mo1  1  4.25673968  4.18868380  3.56654935  1
  Mo  Mo2  1  5.31720606  5.64269072  1.38227717  1
  Mo  Mo3  1  3.76877085  2.04937179  5.47202475  1
  Mo  Mo4  1  5.76505032  1.65363685  4.04467818  1
  Mo  Mo5  1  2.77972642  4.04013053  1.00826769  1
  Mo  Mo6  1  0.80879365  5.75438617  2.83701887  1
  Mo  Mo7  1  2.75310578  1.15062503  2.59939917  1
  Mo  Mo8  1  1.44457402  3.13909008  3.31022273  1
  Mo  Mo9  1  4.71693608  2.83652240  1.30157127  1
  Mo  Mo10  1  2.53381570  4.39322877  5.67464342  1
  Mo  Mo11  1  5.22136780  4.80156407  6.08346527  1
  Mo  Mo12  1  1.87372128  0.60943677  4.74764761  1
  Mo  Mo13  1  0.13770940  3.82269724  1.23252245  1
  Mo  Mo14  1  0.07180055  3.23868164  5.69430357  1
  Mo  Mo15  1  3.28229142  6.43007963  0.27397508  1
  Mo  Mo16  1  6.00156785  6.36984809  8.06904088  1
  Mo  Mo17  1  4.17895302  6.16911599  10.56991094  1
  Mo  Mo18  1  5.23198229  4.51320531  12.28054236  1
  Mo  Mo19  1  4.62002545  2.24197173  8.81092350  1
  Mo  Mo20  1  2.52758006  3.92334131  10.22526260  1
  Mo  Mo21  1  2.14142696  2.30098197  12.79150761  1
  Mo  Mo22  1  0.12231888  4.30781635  7.99219750  1
  Mo  Mo23  1  2.17321086  2.39433788  7.48250321  1
  Mo  Mo24  1  4.68906434  1.86980911  11.22227038  1
  Mo  Mo25  1  1.77984904  6.50479812  7.87277700  1
  Mo  Mo26  1  2.64631544  1.02494903  9.80938097  1
  Mo  Mo27  1  3.75233775  4.84537244  8.38438766  1
  Mo  Mo28  1  0.52205437  4.00463304  11.53315888  1
  Mo  Mo29  1  3.41448109  0.03375171  12.34409032  1
  Mo  Mo30  1  6.29930986  4.58430951  9.72030461  1
  Mo  Mo31  1  1.03647702  8.91237184  3.53995851  1
  Mo  Mo32  1  5.26004269  7.28336975  3.29591451  1
  Mo  Mo33  1  1.31194746  11.64655225  3.22203009  1
  Mo  Mo34  1  3.42982196  12.08463594  4.58218463  1
  Mo  Mo35  1  3.73207191  7.35442430  5.81495532  1
  Mo  Mo36  1  2.47811195  8.71073618  0.52248232  1
  Mo  Mo37  1  5.28348592  12.48012265  2.81118265  1
  Mo  Mo38  1  0.34353328  7.56132253  0.91190417  1
  Mo  Mo39  1  5.39214299  7.99015205  0.03356007  1
  Mo  Mo40  1  2.89795539  10.76184561  1.69089184  1
  Mo  Mo41  1  4.52958877  9.98566696  4.01953702  1
  Mo  Mo42  1  2.25949707  9.89146705  5.61538496  1
  Mo  Mo43  1  0.88845200  6.77668406  5.07576356  1
  Mo  Mo44  1  6.10479355  9.99023447  2.19378451  1
  Mo  Mo45  1  0.78604348  11.45431970  5.61700345  1
  Mo  Mo46  1  2.84268854  7.75398205  3.14158235  1
  Mo  Mo47  1  5.22376078  10.53843485  6.27988802  1
  Mo  Mo48  1  5.16866272  10.66642439  0.00585371  1
  Mo  Mo49  1  5.74543981  8.37838039  6.30438377  1
  Mo  Mo50  1  4.89651862  12.00708758  10.44827619  1
  Mo  Mo51  1  6.08291916  7.81069860  10.65867949  1
  Mo  Mo52  1  5.83408921  12.93429192  8.46711915  1
  Mo  Mo53  1  1.40627645  6.65692596  10.99806526  1
  Mo  Mo54  1  2.19861019  11.13151596  10.14116085  1
  Mo  Mo55  1  1.05409172  9.25638471  11.12526046  1
  Mo  Mo56  1  3.47949859  8.27229503  10.89609066  1
  Mo  Mo57  1  0.15246742  7.45230801  9.14875037  1
  Mo  Mo58  1  2.68531799  12.86280047  7.50338467  1
  Mo  Mo59  1  4.51829908  10.05467606  8.57664007  1
  Mo  Mo60  1  1.46170218  9.43579845  7.97327213  1
  Mo  Mo61  1  3.68273288  7.71512844  8.34343895  1
  Mo  Mo62  1  0.97770907  12.39572303  12.74176148  1
  Mo  Mo63  1  0.04631692  11.75637106  8.07144379  1
  Mo  Mo64  1  11.61855144  2.81155004  3.91200197  1
  Mo  Mo65  1  11.66392865  5.54229489  4.50883639  1
  Mo  Mo66  1  6.87826149  4.81143387  3.80226261  1
  Mo  Mo67  1  8.05539793  2.32975727  3.14289303  1
  Mo  Mo68  1  7.87802964  1.76334644  5.69936755  1
  Mo  Mo69  1  9.35899479  4.08733474  4.04760735  1
  Mo  Mo70  1  8.55745653  4.41256125  1.10538683  1
  Mo  Mo71  1  11.12466470  5.55636480  1.75511499  1
  Mo  Mo72  1  10.45919849  1.95001854  1.95687974  1
  Mo  Mo73  1  7.19059967  2.37004072  0.37236617  1
  Mo  Mo74  1  9.83618033  0.33653208  3.86859078  1
  Mo  Mo75  1  10.90949531  3.99540866  6.27026646  1
  Mo  Mo76  1  8.88892861  1.23363454  0.02506361  1
  Mo  Mo77  1  8.47385126  6.47674766  3.30267641  1
  Mo  Mo78  1  11.83977774  0.66952930  0.43206451  1
  Mo  Mo79  1  10.60476302  1.54420530  6.23920740  1
  Mo  Mo80  1  7.78334319  2.75740520  9.39366814  1
  Mo  Mo81  1  8.33323156  3.96805325  11.29892510  1
  Mo  Mo82  1  7.01829536  0.77968571  10.83393282  1
  Mo  Mo83  1  12.67096509  1.98349044  10.24740509  1
  Mo  Mo84  1  10.94355304  2.63745844  8.71806405  1
  Mo  Mo85  1  9.69054630  1.87727600  10.65937454  1
  Mo  Mo86  1  12.13875100  6.15534396  6.86749805  1
  Mo  Mo87  1  10.53853414  5.33903081  10.11385509  1
  Mo  Mo88  1  9.63888380  5.78166215  12.74603111  1
  Mo  Mo89  1  12.26405961  6.12537713  12.12465129  1
  Mo  Mo90  1  6.97165712  5.98110342  12.80868542  1
  Mo  Mo91  1  10.79798851  3.68438116  12.45371053  1
  Mo  Mo92  1  8.61069780  4.17731467  6.99952885  1
  Mo  Mo93  1  8.18747837  6.23516615  10.52205139  1
  Mo  Mo94  1  12.73064059  0.87615845  7.40096325  1
  Mo  Mo95  1  8.00728021  8.07542546  0.92103323  1
  Mo  Mo96  1  8.59639951  12.40485804  2.10964305  1
  Mo  Mo97  1  8.92359203  10.40518273  0.70376378  1
  Mo  Mo98  1  11.66839686  7.77292728  2.74923333  1
  Mo  Mo99  1  12.06636591  12.89874478  5.16228806  1
  Mo  Mo100  1  9.99013518  8.85491059  3.21250783  1
  Mo  Mo101  1  10.48074522  7.55642736  5.14455421  1
  Mo  Mo102  1  11.44131223  11.91682963  2.03228335  1
  Mo  Mo103  1  11.97650513  10.19497803  4.42328496  1
  Mo  Mo104  1  10.79610193  8.05667882  0.53961545  1
  Mo  Mo105  1  9.69207542  11.12923221  4.36597265  1
  Mo  Mo106  1  7.92434021  6.56309344  5.34132449  1
  Mo  Mo107  1  8.75693753  9.78629519  6.06967338  1
  Mo  Mo108  1  6.65291449  12.26683984  4.82349805  1
  Mo  Mo109  1  12.77125170  10.21126219  1.69022657  1
  Mo  Mo110  1  7.02618920  8.78822496  4.33808106  1
  Mo  Mo111  1  8.10993001  6.91411643  7.77029600  1
  Mo  Mo112  1  12.53612428  12.82119642  10.42166548  1
  Mo  Mo113  1  8.04091098  11.92318443  9.83706405  1
  Mo  Mo114  1  11.57098977  9.91096833  9.74429397  1
  Mo  Mo115  1  10.13341595  8.39510145  8.08694353  1
  Mo  Mo116  1  11.01623601  11.24322135  6.88093249  1
  Mo  Mo117  1  9.17221346  9.35444714  11.16060901  1
  Mo  Mo118  1  6.83095798  10.53118641  11.37150877  1
  Mo  Mo119  1  11.81108187  10.61032347  11.95525629  1
  Mo  Mo120  1  9.62747496  12.07212494  11.97451926  1
  Mo  Mo121  1  8.91404991  10.25296553  8.78414399  1
  Mo  Mo122  1  6.92120600  9.03331154  8.56532059  1
  Mo  Mo123  1  11.10619608  8.28899623  10.97403620  1
  Mo  Mo124  1  10.29913709  13.02186894  8.96462018  1
  Mo  Mo125  1  6.89833867  12.64763108  12.86657363  1
  Mo  Mo126  1  12.63452431  8.92231114  6.83701490  1
  Mo  Mo127  1  8.08396472  12.22116475  7.00112748  1
