# generated using pymatgen
data_Mo
_symmetry_space_group_name_H-M   'P 1'
_cell_length_a   13.34506985
_cell_length_b   13.34506985
_cell_length_c   13.34506985
_cell_angle_alpha   90.00000000
_cell_angle_beta   90.00000000
_cell_angle_gamma   90.00000000
_symmetry_Int_Tables_number   1
_chemical_formula_structural   Mo
_chemical_formula_sum   Mo128
_cell_volume   2376.63535615
_cell_formula_units_Z   128
loop_
 _symmetry_equiv_pos_site_id
 _symmetry_equiv_pos_as_xyz
  1  'x, y, z'
loop_
 _atom_site_type_symbol
 _atom_site_label
 _atom_site_symmetry_multiplicity
 _atom_site_fract_x
 _atom_site_fract_y
 _atom_site_fract_z
 _atom_site_occupancy
  Mo  Mo0  1  4.60864639  4.56365643  0.83993711  1
  Mo  Mo1  1  4.36708474  0.99380060  2.78498898  1
  Mo  Mo2  1  3.57780925  3.69764679  3.23662626  1
  Mo  Mo3  1  0.66514152  0.35214700  6.46995597  1
  Mo  Mo4  1  4.75736846  5.01598876  5.89371506  1
  Mo  Mo5  1  3.53104193  6.36376138  2.59388838  1
  Mo  Mo6  1  5.03127999  1.79468352  5.72950318  1
  Mo  Mo7  1  2.03986939  4.71019404  5.56054506  1
  Mo  Mo8  1  1.27076045  5.62412280  2.81685232  1
  Mo  Mo9  1  1.70323404  2.75455547  1.60681989  1
  Mo  Mo10  1  6.45620380  2.71666500  1.94997883  1
  Mo  Mo11  1  2.83865721  2.44411380  6.63879493  1
  Mo  Mo12  1  5.90278057  5.18592989  3.46796066  1
  Mo  Mo13  1  0.90236503  2.44774795  4.20405446  1
  Mo  Mo14  1  2.31968889  0.71560653  4.28579301  1
  Mo  Mo15  1  1.81380748  5.54957311  0.23341461  1
  Mo  Mo16  1  2.24255757  0.19060414  0.50003004  1
  Mo  Mo17  1  2.26575257  4.00247837  8.57806990  1
  Mo  Mo18  1  0.33672570  2.35675522  11.50386724  1
  Mo  Mo19  1  4.90762958  4.71673749  10.92915545  1
  Mo  Mo20  1  2.78719330  1.07132910  11.78387540  1
  Mo  Mo21  1  5.59332191  0.28438999  11.92775194  1
  Mo  Mo22  1  2.63999043  3.64745384  12.01671907  1
  Mo  Mo23  1  4.88424592  4.10792825  8.22985691  1
  Mo  Mo24  1  1.65550358  1.92611856  9.12655823  1
  Mo  Mo25  1  4.24393080  2.19032909  9.29439433  1
  Mo  Mo26  1  2.82926403  5.69274466  10.40756578  1
  Mo  Mo27  1  0.35062185  5.28586897  7.80076923  1
  Mo  Mo28  1  4.92100444  1.94124098  13.23038565  1
  Mo  Mo29  1  1.07805128  6.82915084  5.74569798  1
  Mo  Mo30  1  4.48963300  10.40329615  4.70190301  1
  Mo  Mo31  1  2.08450190  9.59218599  6.21562515  1
  Mo  Mo32  1  1.47666574  8.12189490  3.30833615  1
  Mo  Mo33  1  4.47072748  10.20699256  1.93043783  1
  Mo  Mo34  1  6.57117594  9.50998075  5.19321804  1
  Mo  Mo35  1  2.03679129  11.96915740  3.27460609  1
  Mo  Mo36  1  0.27809577  11.34996205  5.39674029  1
  Mo  Mo37  1  5.89177883  7.77907356  3.00306768  1
  Mo  Mo38  1  1.01339124  11.18215574  1.04763763  1
  Mo  Mo39  1  4.31035827  7.24489345  5.15037282  1
  Mo  Mo40  1  6.09718766  11.99517234  3.55751363  1
  Mo  Mo41  1  4.80358967  7.53132591  0.01173671  1
  Mo  Mo42  1  4.68153788  12.52311681  1.18687715  1
  Mo  Mo43  1  4.20221753  12.51259168  9.53772341  1
  Mo  Mo44  1  5.12974953  10.30261237  7.63802690  1
  Mo  Mo45  1  3.38411708  11.17401366  12.23983196  1
  Mo  Mo46  1  0.22640546  10.97046162  7.68993763  1
  Mo  Mo47  1  6.67143276  7.42100071  11.34678465  1
  Mo  Mo48  1  2.42966657  9.95121205  8.87771835  1
  Mo  Mo49  1  5.90931410  6.78224450  7.02855239  1
  Mo  Mo50  1  3.17836073  8.30243066  10.75251201  1
  Mo  Mo51  1  1.13881901  7.56840217  8.94915022  1
  Mo  Mo52  1  5.03542054  9.97583689  10.33766304  1
  Mo  Mo53  1  4.83101458  7.15467522  9.47214986  1
  Mo  Mo54  1  0.42901123  12.98304511  11.89021893  1
  Mo  Mo55  1  1.56237604  12.20488058  9.81119804  1
  Mo  Mo56  1  0.24478870  10.38750846  11.26566172  1
  Mo  Mo57  1  5.53675430  9.74414503  12.74434312  1
  Mo  Mo58  1  1.02490931  7.77457556  11.61457969  1
  Mo  Mo59  1  3.25839143  7.02378630  7.38776712  1
  Mo  Mo60  1  6.07118264  13.04540154  6.80111030  1
  Mo  Mo61  1  3.25664386  12.52063447  6.98985765  1
  Mo  Mo62  1  2.18347783  9.17881649  13.21181774  1
  Mo  Mo63  1  7.45951673  1.33704890  3.46016611  1
  Mo  Mo64  1  8.23677768  4.04909675  2.08983397  1
  Mo  Mo65  1  9.08452722  2.84674965  5.05819851  1
  Mo  Mo66  1  12.93597991  1.03432235  1.32024841  1
  Mo  Mo67  1  11.16209841  1.68116106  4.65105472  1
  Mo  Mo68  1  11.40556650  3.74058137  2.85683788  1
  Mo  Mo69  1  12.65825550  5.01112337  4.71620130  1
  Mo  Mo70  1  7.57223491  4.29938632  6.33703153  1
  Mo  Mo71  1  9.85224605  5.78341965  3.80043560  1
  Mo  Mo72  1  13.07280659  4.10680623  0.44449310  1
  Mo  Mo73  1  9.28261810  1.73481936  1.85082416  1
  Mo  Mo74  1  8.82687999  0.11510719  6.20072117  1
  Mo  Mo75  1  10.19100628  4.26837690  0.64517554  1
  Mo  Mo76  1  7.49663270  5.15464245  0.15572326  1
  Mo  Mo77  1  10.94792196  6.15892846  6.41086630  1
  Mo  Mo78  1  6.89852733  0.02517422  1.32984018  1
  Mo  Mo79  1  7.17522901  6.29935951  4.98234807  1
  Mo  Mo80  1  9.80065306  6.50641661  0.95429760  1
  Mo  Mo81  1  13.23604539  2.90996000  7.28651736  1
  Mo  Mo82  1  11.35810413  5.14520955  9.00141841  1
  Mo  Mo83  1  8.76351077  3.38419652  8.86888121  1
  Mo  Mo84  1  6.70229324  2.20716930  7.10975476  1
  Mo  Mo85  1  10.92270137  1.07543986  12.48389581  1
  Mo  Mo86  1  11.66561664  5.75948987  12.51040722  1
  Mo  Mo87  1  6.91294477  2.87047091  11.10182715  1
  Mo  Mo88  1  12.37278619  2.24173343  9.73820726  1
  Mo  Mo89  1  9.90597386  3.56893240  11.14094886  1
  Mo  Mo90  1  6.86037870  0.49007783  9.12911008  1
  Mo  Mo91  1  9.60248274  1.27736348  10.01118543  1
  Mo  Mo92  1  10.73096528  1.45353031  7.60857639  1
  Mo  Mo93  1  7.49471634  5.49212179  9.73406672  1
  Mo  Mo94  1  7.89261588  1.48579083  12.87272984  1
  Mo  Mo95  1  13.04679165  5.50824709  10.49653291  1
  Mo  Mo96  1  10.73305045  4.08108917  7.06036609  1
  Mo  Mo97  1  10.58857815  9.14257430  1.62133662  1
  Mo  Mo98  1  11.21313536  11.07611009  4.27929921  1
  Mo  Mo99  1  8.64387182  10.98972460  3.89077299  1
  Mo  Mo100  1  13.03249336  13.19185971  3.53184621  1
  Mo  Mo101  1  9.47910042  12.26276880  1.05209592  1
  Mo  Mo102  1  11.28998867  12.67473825  6.04139454  1
  Mo  Mo103  1  8.24970572  8.17933629  3.18485454  1
  Mo  Mo104  1  7.32617525  10.67585729  1.80383840  1
  Mo  Mo105  1  9.51090418  13.21003045  3.56435496  1
  Mo  Mo106  1  12.69062524  10.05993863  2.76105921  1
  Mo  Mo107  1  11.98494509  7.33134845  3.86112390  1
  Mo  Mo108  1  9.90583485  8.43007268  5.46206560  1
  Mo  Mo109  1  12.78018813  6.81358159  1.10150445  1
  Mo  Mo110  1  7.88073043  7.99096626  0.65071514  1
  Mo  Mo111  1  13.05870689  9.06389399  0.26108577  1
  Mo  Mo112  1  8.02289911  11.05684712  6.39843474  1
  Mo  Mo113  1  11.92745406  12.08304725  0.09888339  1
  Mo  Mo114  1  9.07404181  9.73322272  10.03739896  1
  Mo  Mo115  1  6.75921830  8.55496426  8.48208271  1
  Mo  Mo116  1  10.84604665  9.44169649  12.51606696  1
  Mo  Mo117  1  9.08148883  7.09256703  10.90492780  1
  Mo  Mo118  1  10.95894356  11.84603324  10.22337602  1
  Mo  Mo119  1  9.58357722  8.05516955  8.30982804  1
  Mo  Mo120  1  8.93930029  12.51666272  11.19496462  1
  Mo  Mo121  1  8.17777738  9.96600681  12.31529515  1
  Mo  Mo122  1  10.80374754  10.50546935  7.64652644  1
  Mo  Mo123  1  12.62022602  13.28896892  8.75636162  1
  Mo  Mo124  1  6.91017447  11.30011662  10.27759036  1
  Mo  Mo125  1  11.97432067  8.17141266  9.23727068  1
  Mo  Mo126  1  8.99740695  12.19038371  8.48711690  1
  Mo  Mo127  1  13.08144514  8.52515630  7.06988835  1
