# generated using pymatgen
data_Mo
_symmetry_space_group_name_H-M   'P 1'
_cell_length_a   13.34506985
_cell_length_b   13.34506985
_cell_length_c   13.34506985
_cell_angle_alpha   90.00000000
_cell_angle_beta   90.00000000
_cell_angle_gamma   90.00000000
_symmetry_Int_Tables_number   1
_chemical_formula_structural   Mo
_chemical_formula_sum   Mo128
_cell_volume   2376.63535615
_cell_formula_units_Z   128
loop_
 _symmetry_equiv_pos_site_id
 _symmetry_equiv_pos_as_xyz
  1  'x, y, z'
loop_
 _atom_site_type_symbol
 _atom_site_label
 _atom_site_symmetry_multiplicity
 _atom_site_fract_x
 _atom_site_fract_y
 _atom_site_fract_z
 _atom_site_occupancy
  Mo  Mo0  1  2.18870068  3.72993709  2.78679613  1
  Mo  Mo1  1  4.55977405  4.89855414  1.23340617  1
  Mo  Mo2  1  6.40701371  4.66835168  5.96963500  1
  Mo  Mo3  1  2.04543976  1.80761156  5.71777660  1
  Mo  Mo4  1  2.15301453  1.43836817  1.25233154  1
  Mo  Mo5  1  0.45353478  1.53491141  3.40778870  1
  Mo  Mo6  1  5.34090746  2.58861588  0.46378983  1
  Mo  Mo7  1  6.20293542  2.92307669  3.20993612  1
  Mo  Mo8  1  3.61891684  1.64698418  3.21053188  1
  Mo  Mo9  1  0.08591326  5.47827032  0.45648082  1
  Mo  Mo10  1  4.56009179  2.80171997  5.54400274  1
  Mo  Mo11  1  4.84038790  4.68707847  3.97693011  1
  Mo  Mo12  1  2.81961269  6.44705885  2.41286608  1
  Mo  Mo13  1  2.19860026  4.53226970  5.33564489  1
  Mo  Mo14  1  0.05874273  5.52059922  3.84029208  1
  Mo  Mo15  1  2.13958010  1.29659666  10.08108818  1
  Mo  Mo16  1  0.27235858  1.42872675  12.63402784  1
  Mo  Mo17  1  3.11797032  3.86230549  9.74426418  1
  Mo  Mo18  1  1.29388594  6.25958246  9.63952921  1
  Mo  Mo19  1  0.82237702  4.29545429  11.15902031  1
  Mo  Mo20  1  5.33758112  1.42661180  7.46865175  1
  Mo  Mo21  1  3.72599513  0.87863880  12.36434623  1
  Mo  Mo22  1  4.91337868  4.04645554  11.74574663  1
  Mo  Mo23  1  0.60207613  3.58716272  8.31642114  1
  Mo  Mo24  1  2.44657628  4.04384412  13.24746417  1
  Mo  Mo25  1  3.80262006  5.14043353  7.40369383  1
  Mo  Mo26  1  5.45574059  4.31299948  8.97401336  1
  Mo  Mo27  1  3.08410125  5.66185440  11.53246382  1
  Mo  Mo28  1  0.15315851  5.46309825  6.92142445  1
  Mo  Mo29  1  5.59523827  0.41599681  10.61191216  1
  Mo  Mo30  1  2.47478561  0.39078316  7.63412466  1
  Mo  Mo31  1  6.60029878  6.27949084  10.38373530  1
  Mo  Mo32  1  6.03205101  6.89393003  2.82202552  1
  Mo  Mo33  1  3.83572457  7.67035692  0.39942469  1
  Mo  Mo34  1  4.56192872  9.14020118  6.31472024  1
  Mo  Mo35  1  5.93055301  11.07362775  4.68796218  1
  Mo  Mo36  1  1.91205857  12.42888711  2.93115920  1
  Mo  Mo37  1  3.57037216  9.18465496  3.80924295  1
  Mo  Mo38  1  0.93618942  12.29136537  5.43393570  1
  Mo  Mo39  1  1.48249428  6.96604703  4.81883124  1
  Mo  Mo40  1  3.97800248  12.56561450  1.02332061  1
  Mo  Mo41  1  0.28427084  10.52800901  3.93518705  1
  Mo  Mo42  1  5.01931510  10.09091825  1.88521949  1
  Mo  Mo43  1  1.98750191  9.83476043  5.86381773  1
  Mo  Mo44  1  0.82412459  7.92472745  1.52254935  1
  Mo  Mo45  1  2.63945424  9.75400489  0.20978072  1
  Mo  Mo46  1  3.81021603  11.88207685  4.24544999  1
  Mo  Mo47  1  4.22675299  6.79465621  5.31240024  1
  Mo  Mo48  1  5.68942825  13.22671179  3.21724413  1
  Mo  Mo49  1  1.61869541  7.43157549  12.66649688  1
  Mo  Mo50  1  1.88295560  9.09144799  10.29734980  1
  Mo  Mo51  1  5.90295930  11.92427666  13.25818788  1
  Mo  Mo52  1  4.48478747  11.88187826  6.92116628  1
  Mo  Mo53  1  4.29685433  9.46260774  8.54217524  1
  Mo  Mo54  1  0.10893410  12.72915119  10.04990997  1
  Mo  Mo55  1  0.08049381  8.00225595  8.67798913  1
  Mo  Mo56  1  1.55931779  11.35889848  8.55906509  1
  Mo  Mo57  1  1.91278342  12.04730152  12.31281281  1
  Mo  Mo58  1  5.23178371  9.63899302  12.04372695  1
  Mo  Mo59  1  6.00373245  6.68200754  7.68658150  1
  Mo  Mo60  1  3.34182791  11.93470250  10.32892519  1
  Mo  Mo61  1  2.59407703  7.54294327  7.56458930  1
  Mo  Mo62  1  6.07695161  6.90549774  12.63680807  1
  Mo  Mo63  1  4.35277652  6.86251351  9.40682456  1
  Mo  Mo64  1  6.63612393  8.87307141  10.00046172  1
  Mo  Mo65  1  10.04822197  1.55252611  1.44234984  1
  Mo  Mo66  1  12.10042364  0.36705694  5.12406993  1
  Mo  Mo67  1  10.63405465  4.99847336  2.23897307  1
  Mo  Mo68  1  13.18987383  2.86174299  1.49238393  1
  Mo  Mo69  1  11.09388366  2.82390217  3.53903507  1
  Mo  Mo70  1  9.25727835  4.08668934  5.81658373  1
  Mo  Mo71  1  10.34153549  6.15750856  0.06572606  1
  Mo  Mo72  1  7.92138126  5.60854363  3.65182276  1
  Mo  Mo73  1  11.84116785  0.05871146  1.67199625  1
  Mo  Mo74  1  12.85386404  3.27160742  5.22910278  1
  Mo  Mo75  1  10.43308426  5.83095153  4.50045601  1
  Mo  Mo76  1  8.51646811  2.99255248  3.17204565  1
  Mo  Mo77  1  8.11675149  0.48319777  4.60880526  1
  Mo  Mo78  1  7.24655166  1.16281829  1.53892287  1
  Mo  Mo79  1  7.40733790  2.37881828  6.01200361  1
  Mo  Mo80  1  7.54178154  5.20018846  1.26756319  1
  Mo  Mo81  1  9.90827747  1.38099628  6.57692504  1
  Mo  Mo82  1  8.69462082  4.33135888  8.10346600  1
  Mo  Mo83  1  10.05547041  5.39909355  11.11215370  1
  Mo  Mo84  1  11.51717259  3.68834297  7.84456767  1
  Mo  Mo85  1  11.55321620  5.96433272  9.39605119  1
  Mo  Mo86  1  12.59758707  6.51681265  11.74008689  1
  Mo  Mo87  1  10.52344150  1.08063292  12.29325195  1
  Mo  Mo88  1  9.85121340  2.92079294  10.19279356  1
  Mo  Mo89  1  11.65717668  3.77706187  12.32562169  1
  Mo  Mo90  1  10.81635784  0.17235098  9.60326716  1
  Mo  Mo91  1  13.13377291  0.70489970  7.74728966  1
  Mo  Mo92  1  8.73716816  3.67805615  13.12036826  1
  Mo  Mo93  1  12.52639350  2.11477654  9.97762417  1
  Mo  Mo94  1  11.04751351  5.92573727  7.07791128  1
  Mo  Mo95  1  7.35576477  3.65752222  10.65232469  1
  Mo  Mo96  1  8.09865025  1.15537127  8.93854566  1
  Mo  Mo97  1  7.62497971  1.09755256  11.75408730  1
  Mo  Mo98  1  11.37061513  11.12297671  4.60811021  1
  Mo  Mo99  1  10.13252230  13.20893822  3.32636788  1
  Mo  Mo100  1  11.84950852  7.70799915  1.63707467  1
  Mo  Mo101  1  9.64323286  10.17988539  2.16853413  1
  Mo  Mo102  1  8.69794715  6.80231176  6.33453926  1
  Mo  Mo103  1  8.98345619  11.06618073  5.00800555  1
  Mo  Mo104  1  7.40183703  8.83584621  2.59674803  1
  Mo  Mo105  1  9.62047475  8.58675810  4.00011518  1
  Mo  Mo106  1  12.07649386  7.99319044  4.54625025  1
  Mo  Mo107  1  12.82318229  10.76482442  1.02899028  1
  Mo  Mo108  1  7.89849406  11.73571797  2.45474815  1
  Mo  Mo109  1  8.21283798  7.61921075  0.72556966  1
  Mo  Mo110  1  7.62599250  9.71902373  0.01912873  1
  Mo  Mo111  1  6.81360145  12.47217916  6.61485523  1
  Mo  Mo112  1  13.18947666  9.74925865  6.39210973  1
  Mo  Mo113  1  6.95136149  8.29164737  4.86284813  1
  Mo  Mo114  1  9.48533606  12.42124150  0.00067810  1
  Mo  Mo115  1  9.09139834  7.48389333  9.04852333  1
  Mo  Mo116  1  9.50745869  10.11474874  9.70684039  1
  Mo  Mo117  1  10.44370868  10.11931625  12.60761573  1
  Mo  Mo118  1  10.23042587  9.40754940  7.14269047  1
  Mo  Mo119  1  11.93787989  10.64279250  10.09389706  1
  Mo  Mo120  1  6.75319118  11.66363076  9.01898346  1
  Mo  Mo121  1  7.55664580  9.43321681  7.41402037  1
  Mo  Mo122  1  9.31506727  12.04988316  7.90380628  1
  Mo  Mo123  1  12.26276880  12.46522860  12.36176459  1
  Mo  Mo124  1  13.20397354  9.13477975  12.17836917  1
  Mo  Mo125  1  11.55202467  11.68408526  7.15696890  1
  Mo  Mo126  1  8.77571396  12.60701997  11.05039303  1
  Mo  Mo127  1  10.91356635  8.14210116  10.83701092  1
