# generated using pymatgen
data_Mo
_symmetry_space_group_name_H-M   'P 1'
_cell_length_a   13.34506985
_cell_length_b   13.34506985
_cell_length_c   13.34506985
_cell_angle_alpha   90.00000000
_cell_angle_beta   90.00000000
_cell_angle_gamma   90.00000000
_symmetry_Int_Tables_number   1
_chemical_formula_structural   Mo
_chemical_formula_sum   Mo128
_cell_volume   2376.63535615
_cell_formula_units_Z   128
loop_
 _symmetry_equiv_pos_site_id
 _symmetry_equiv_pos_as_xyz
  1  'x, y, z'
loop_
 _atom_site_type_symbol
 _atom_site_label
 _atom_site_symmetry_multiplicity
 _atom_site_fract_x
 _atom_site_fract_y
 _atom_site_fract_z
 _atom_site_occupancy
  Mo  Mo0  1  2.66988775  5.70665571  4.72560441  1
  Mo  Mo1  1  4.76220406  4.43826838  3.14706337  1
  Mo  Mo2  1  1.04367581  3.14445194  4.45614124  1
  Mo  Mo3  1  1.34288737  5.45089506  2.17648756  1
  Mo  Mo4  1  5.09735993  4.11049996  6.21253712  1
  Mo  Mo5  1  3.52923479  1.96704741  5.04855709  1
  Mo  Mo6  1  0.10501895  2.84699788  0.88241693  1
  Mo  Mo7  1  4.49299905  1.68186605  1.91319052  1
  Mo  Mo8  1  6.21795855  1.36423551  4.56191879  1
  Mo  Mo9  1  6.17950211  3.93326075  0.59024033  1
  Mo  Mo10  1  2.05421733  0.94298805  2.36259369  1
  Mo  Mo11  1  2.51578397  3.03838644  0.92396041  1
  Mo  Mo12  1  3.33842213  5.91486461  0.51323610  1
  Mo  Mo13  1  4.96550786  2.26363761  12.78435847  1
  Mo  Mo14  1  3.21290500  0.80910642  8.98249304  1
  Mo  Mo15  1  1.13815374  3.31872227  11.74217206  1
  Mo  Mo16  1  4.16996694  5.37454815  9.06449968  1
  Mo  Mo17  1  1.45729354  0.59105950  13.31170717  1
  Mo  Mo18  1  3.70298879  3.08261184  9.61198515  1
  Mo  Mo19  1  6.35780376  4.28621005  11.18106351  1
  Mo  Mo20  1  2.82750653  1.17257886  11.46256107  1
  Mo  Mo21  1  1.21825395  6.56854466  12.05524502  1
  Mo  Mo22  1  0.91384338  2.22447619  8.85488081  1
  Mo  Mo23  1  5.71795533  0.80871223  10.74307911  1
  Mo  Mo24  1  3.51959337  4.37551478  11.87472912  1
  Mo  Mo25  1  5.29420964  1.55635884  6.80762397  1
  Mo  Mo26  1  2.30660199  3.71679061  7.07942054  1
  Mo  Mo27  1  0.65900616  4.59048558  9.26506298  1
  Mo  Mo28  1  1.16757446  0.74452482  6.94561239  1
  Mo  Mo29  1  5.86467166  11.46782364  1.97662925  1
  Mo  Mo30  1  3.39594296  10.01446213  6.05243600  1
  Mo  Mo31  1  5.54236439  11.28482540  4.64185020  1
  Mo  Mo32  1  0.65119969  7.31233372  5.71287149  1
  Mo  Mo33  1  5.10905673  6.90545803  5.98478722  1
  Mo  Mo34  1  1.15283928  11.84772124  1.80456324  1
  Mo  Mo35  1  3.70436897  12.82030278  0.78826865  1
  Mo  Mo36  1  2.15520892  7.63584244  2.75873573  1
  Mo  Mo37  1  1.22917625  9.57805650  0.69323865  1
  Mo  Mo38  1  3.66814664  10.13947286  1.95429810  1
  Mo  Mo39  1  1.55298286  12.79150761  4.64463042  1
  Mo  Mo40  1  5.44503673  7.87281672  0.51013813  1
  Mo  Mo41  1  4.69664045  7.70441465  3.18003879  1
  Mo  Mo42  1  1.48513549  10.29963356  3.75927837  1
  Mo  Mo43  1  0.11283038  10.33379058  5.91679091  1
  Mo  Mo44  1  3.93430333  11.71973169  9.36648154  1
  Mo  Mo45  1  4.98856385  7.74660453  8.73079350  1
  Mo  Mo46  1  3.23893980  8.94923959  12.98661968  1
  Mo  Mo47  1  4.93277074  10.90999178  12.67563189  1
  Mo  Mo48  1  2.57701838  9.62123932  8.73006866  1
  Mo  Mo49  1  4.12907781  8.91946141  10.68161632  1
  Mo  Mo50  1  1.73472007  11.38779294  7.87790056  1
  Mo  Mo51  1  2.00250518  11.36952290  12.23893831  1
  Mo  Mo52  1  5.76037358  9.90250851  7.09468198  1
  Mo  Mo53  1  0.67904561  10.30013003  10.19309145  1
  Mo  Mo54  1  1.04617801  13.06813979  10.74615721  1
  Mo  Mo55  1  0.40940569  8.18525420  7.98024255  1
  Mo  Mo56  1  4.04049792  12.72448438  7.23763508  1
  Mo  Mo57  1  6.55235979  12.55320279  8.04632249  1
  Mo  Mo58  1  6.57091778  11.30299614  10.31631490  1
  Mo  Mo59  1  4.95676009  6.70018821  11.43734048  1
  Mo  Mo60  1  2.68907129  6.77460882  7.43201238  1
  Mo  Mo61  1  6.50827340  13.17646919  12.93290181  1
  Mo  Mo62  1  9.32724067  5.34634875  1.15300808  1
  Mo  Mo63  1  10.37211794  5.27293101  6.22797728  1
  Mo  Mo64  1  11.95744075  6.15745892  2.94783061  1
  Mo  Mo65  1  8.12396021  2.62311050  1.62022453  1
  Mo  Mo66  1  12.68844078  4.93471689  5.02021868  1
  Mo  Mo67  1  8.69876136  1.84350622  4.51465500  1
  Mo  Mo68  1  9.16937366  4.54024298  3.54702822  1
  Mo  Mo69  1  7.56865041  6.29024435  4.81874188  1
  Mo  Mo70  1  10.47657489  0.64868756  2.42594305  1
  Mo  Mo71  1  11.94562480  3.47167425  3.08710984  1
  Mo  Mo72  1  13.19195900  0.77686874  3.36270937  1
  Mo  Mo73  1  12.22265415  6.49269422  0.25199841  1
  Mo  Mo74  1  10.73195822  0.77302111  5.56529130  1
  Mo  Mo75  1  7.90844329  3.69168917  5.85428554  1
  Mo  Mo76  1  11.21939086  3.70336611  0.32365468  1
  Mo  Mo77  1  7.13713003  6.10780215  2.68723436  1
  Mo  Mo78  1  11.87780722  0.08261671  0.92460979  1
  Mo  Mo79  1  11.16209841  1.63778958  9.02111828  1
  Mo  Mo80  1  6.77307970  3.27047547  8.54781512  1
  Mo  Mo81  1  11.92646112  5.04392008  8.47684993  1
  Mo  Mo82  1  7.52880385  2.22443647  10.45433310  1
  Mo  Mo83  1  9.17846896  4.25127853  8.70786659  1
  Mo  Mo84  1  12.77452839  3.30626091  6.73864465  1
  Mo  Mo85  1  9.63861571  1.63852436  13.08214020  1
  Mo  Mo86  1  11.63662288  3.64222106  10.61786978  1
  Mo  Mo87  1  8.29849863  1.33547013  7.98840449  1
  Mo  Mo88  1  10.00115677  2.87285395  6.80264935  1
  Mo  Mo89  1  8.69294275  4.41513295  11.01444872  1
  Mo  Mo90  1  12.04124461  1.15678124  12.08473524  1
  Mo  Mo91  1  7.46523604  5.96654697  7.79906138  1
  Mo  Mo92  1  10.62561469  5.70733090  11.95883086  1
  Mo  Mo93  1  9.14301119  7.73697304  6.41420257  1
  Mo  Mo94  1  9.43267070  12.29841523  0.38908028  1
  Mo  Mo95  1  10.05179655  11.52223657  3.81112953  1
  Mo  Mo96  1  11.41837539  9.14869079  3.92946773  1
  Mo  Mo97  1  6.98384045  9.28714589  3.66269542  1
  Mo  Mo98  1  12.90758192  8.35316973  1.99188076  1
  Mo  Mo99  1  9.58227648  7.82895870  0.76916653  1
  Mo  Mo100  1  12.56571380  12.69946238  6.31307196  1
  Mo  Mo101  1  12.49640681  11.72439849  3.95111375  1
  Mo  Mo102  1  7.95101049  10.09906034  6.02775159  1
  Mo  Mo103  1  10.64199815  10.57596785  6.03367942  1
  Mo  Mo104  1  9.06930550  9.80475388  2.04931222  1
  Mo  Mo105  1  9.74489966  7.08405756  3.36394061  1
  Mo  Mo106  1  7.39772628  10.27749107  0.29748385  1
  Mo  Mo107  1  7.92025924  12.77383334  5.73186637  1
  Mo  Mo108  1  11.08474864  10.37549393  1.18653955  1
  Mo  Mo109  1  8.02995889  12.74205936  2.43861293  1
  Mo  Mo110  1  11.71188749  7.51174520  6.43681174  1
  Mo  Mo111  1  11.59462166  10.50189477  10.54240659  1
  Mo  Mo112  1  6.86010067  9.19647091  11.65479363  1
  Mo  Mo113  1  10.11147205  12.80878471  7.63457148  1
  Mo  Mo114  1  12.36365117  10.40955166  8.07766950  1
  Mo  Mo115  1  12.92098656  11.85526756  12.44209317  1
  Mo  Mo116  1  7.61530850  8.82224298  9.10814918  1
  Mo  Mo117  1  10.48978094  8.89703097  8.67539756  1
  Mo  Mo118  1  7.34719572  6.91177310  12.93359686  1
  Mo  Mo119  1  9.04526650  10.68330432  11.37240242  1
  Mo  Mo120  1  12.65358870  8.68568439  12.16724828  1
  Mo  Mo121  1  12.48171135  6.74766052  9.88375193  1
  Mo  Mo122  1  9.96253153  8.46675176  10.97641924  1
  Mo  Mo123  1  12.82824627  13.00121585  8.70818433  1
  Mo  Mo124  1  10.92369430  12.83122508  10.43705600  1
  Mo  Mo125  1  9.91228893  6.73850564  9.14381547  1
  Mo  Mo126  1  6.97799205  6.85597006  10.00850450  1
  Mo  Mo127  1  8.35186898  12.94700151  11.52958430  1
