# generated using pymatgen
data_Mo
_symmetry_space_group_name_H-M   'P 1'
_cell_length_a   13.34506985
_cell_length_b   13.34506985
_cell_length_c   13.34506985
_cell_angle_alpha   90.00000000
_cell_angle_beta   90.00000000
_cell_angle_gamma   90.00000000
_symmetry_Int_Tables_number   1
_chemical_formula_structural   Mo
_chemical_formula_sum   Mo128
_cell_volume   2376.63535615
_cell_formula_units_Z   128
loop_
 _symmetry_equiv_pos_site_id
 _symmetry_equiv_pos_as_xyz
  1  'x, y, z'
loop_
 _atom_site_type_symbol
 _atom_site_label
 _atom_site_symmetry_multiplicity
 _atom_site_fract_x
 _atom_site_fract_y
 _atom_site_fract_z
 _atom_site_occupancy
  Mo  Mo0  1  5.45068654  5.73083372  4.50875696  1
  Mo  Mo1  1  4.33163690  5.45348662  1.89600278  1
  Mo  Mo2  1  1.92616820  3.96236373  0.76634858  1
  Mo  Mo3  1  0.10863026  2.36558243  5.38485484  1
  Mo  Mo4  1  1.93180808  5.90347563  4.03340835  1
  Mo  Mo5  1  5.62588030  0.51905868  4.59978940  1
  Mo  Mo6  1  3.00921396  0.34735509  0.08871820  1
  Mo  Mo7  1  5.70277332  2.95063069  3.53731729  1
  Mo  Mo8  1  4.44761191  2.45930573  0.72586556  1
  Mo  Mo9  1  2.59669839  3.56425567  6.26416983  1
  Mo  Mo10  1  2.81231460  1.93512449  4.33601575  1
  Mo  Mo11  1  1.02940731  0.89390024  2.93317486  1
  Mo  Mo12  1  0.31692456  3.14583212  2.39396056  1
  Mo  Mo13  1  5.06265679  3.27599620  6.04036189  1
  Mo  Mo14  1  6.06968331  0.83566351  1.64982398  1
  Mo  Mo15  1  1.87773275  6.58626858  1.49625638  1
  Mo  Mo16  1  1.41384263  0.74400552  6.46373026  1
  Mo  Mo17  1  0.68545700  0.14915499  0.11944036  1
  Mo  Mo18  1  3.61344575  3.47754250  9.12925902  1
  Mo  Mo19  1  6.10201333  5.10636587  7.92056705  1
  Mo  Mo20  1  2.14445542  5.28410154  9.83098727  1
  Mo  Mo21  1  1.77963060  1.74474873  9.26590697  1
  Mo  Mo22  1  2.94131694  6.21148461  12.13239620  1
  Mo  Mo23  1  3.39653872  2.00530526  11.21005726  1
  Mo  Mo24  1  6.02347203  1.91338911  12.34180656  1
  Mo  Mo25  1  4.38161141  4.02890042  12.00897416  1
  Mo  Mo26  1  5.18685332  0.57833104  10.24581639  1
  Mo  Mo27  1  3.83822677  1.24167733  7.27878238  1
  Mo  Mo28  1  6.40282352  1.74910772  8.00322903  1
  Mo  Mo29  1  0.28607004  5.07438337  7.76359368  1
  Mo  Mo30  1  0.89773198  2.68631093  12.21967534  1
  Mo  Mo31  1  6.23192917  3.56619189  9.99728432  1
  Mo  Mo32  1  6.65523797  4.01594259  13.32312595  1
  Mo  Mo33  1  5.72567044  6.65236838  13.14777332  1
  Mo  Mo34  1  3.90291660  6.25686181  7.08608315  1
  Mo  Mo35  1  0.14121646  5.14925081  11.52342810  1
  Mo  Mo36  1  1.65323968  11.35899777  1.71413649  1
  Mo  Mo37  1  4.71496013  11.29723711  1.11299273  1
  Mo  Mo38  1  3.11174461  9.18791179  5.61804603  1
  Mo  Mo39  1  3.46653083  7.93116168  0.67826417  1
  Mo  Mo40  1  0.95524487  9.19363111  2.64589840  1
  Mo  Mo41  1  3.57802770  7.56079628  3.67633837  1
  Mo  Mo42  1  1.91783746  11.09189779  4.01076939  1
  Mo  Mo43  1  4.41308750  9.62601534  3.26195608  1
  Mo  Mo44  1  0.01921531  8.89517418  5.21947129  1
  Mo  Mo45  1  3.31845418  12.77919520  4.94238236  1
  Mo  Mo46  1  5.12903461  10.44400656  5.63015986  1
  Mo  Mo47  1  6.10585599  7.52771162  6.50112425  1
  Mo  Mo48  1  1.86464584  7.29023094  6.14661605  1
  Mo  Mo49  1  3.79929372  13.17388755  2.65027725  1
  Mo  Mo50  1  6.65666779  9.09954042  1.43380066  1
  Mo  Mo51  1  4.98474105  6.74727327  10.47816358  1
  Mo  Mo52  1  4.85645362  9.96084354  12.59629625  1
  Mo  Mo53  1  4.44225998  12.01215156  7.68450627  1
  Mo  Mo54  1  2.30078338  12.06150052  8.24178208  1
  Mo  Mo55  1  2.04568800  8.55556995  8.38013789  1
  Mo  Mo56  1  0.12291465  10.80732212  7.06279878  1
  Mo  Mo57  1  6.63620337  12.66173078  7.90265447  1
  Mo  Mo58  1  1.19939808  13.11480782  11.03162653  1
  Mo  Mo59  1  5.99205551  12.48161205  12.52887584  1
  Mo  Mo60  1  2.29597756  10.60982700  12.52450692  1
  Mo  Mo61  1  3.51803446  11.77910931  11.05069091  1
  Mo  Mo62  1  0.93986924  10.25862527  10.24244040  1
  Mo  Mo63  1  3.23470989  8.62898770  10.77455520  1
  Mo  Mo64  1  5.26635776  10.76591665  9.73472206  1
  Mo  Mo65  1  4.78154647  8.83981796  8.24225869  1
  Mo  Mo66  1  1.01748214  7.62695565  10.65510491  1
  Mo  Mo67  1  6.51842121  8.62791533  11.30686859  1
  Mo  Mo68  1  12.11879297  0.64701148  6.29402744  1
  Mo  Mo69  1  7.41150824  6.09422871  1.81917927  1
  Mo  Mo70  1  12.48826473  4.82406402  4.34405854  1
  Mo  Mo71  1  10.17432494  1.45415586  0.54371727  1
  Mo  Mo72  1  11.60147292  0.78544871  3.95520465  1
  Mo  Mo73  1  8.23351092  2.97971381  1.88245913  1
  Mo  Mo74  1  10.54538540  3.54756440  4.74044882  1
  Mo  Mo75  1  7.77884519  3.42257352  6.45524065  1
  Mo  Mo76  1  10.40150887  3.80533078  2.47583813  1
  Mo  Mo77  1  8.34869158  4.99624918  3.79446805  1
  Mo  Mo78  1  9.80978807  6.32795609  1.83066755  1
  Mo  Mo79  1  13.00935793  5.25120555  1.43390988  1
  Mo  Mo80  1  8.80794469  1.62658926  4.45777959  1
  Mo  Mo81  1  12.10926078  2.93936086  0.45978730  1
  Mo  Mo82  1  9.08174699  0.90847357  6.60107327  1
  Mo  Mo83  1  12.31817467  3.58353850  10.28692397  1
  Mo  Mo84  1  10.68538948  5.64842989  12.70998751  1
  Mo  Mo85  1  8.49628170  2.50095943  8.75154588  1
  Mo  Mo86  1  9.02292542  0.59475918  9.49241570  1
  Mo  Mo87  1  9.27023618  3.92501938  11.79410265  1
  Mo  Mo88  1  13.16187302  0.12201802  9.23030026  1
  Mo  Mo89  1  8.68204031  6.57880170  12.69459699  1
  Mo  Mo90  1  11.96240543  1.27035334  11.46266037  1
  Mo  Mo91  1  11.60435244  2.10195772  8.18306973  1
  Mo  Mo92  1  8.24790850  0.80527071  12.27935084  1
  Mo  Mo93  1  10.92399218  4.34525999  7.04411171  1
  Mo  Mo94  1  11.97402279  5.99984014  9.64212078  1
  Mo  Mo95  1  7.17647018  5.52051978  10.82857096  1
  Mo  Mo96  1  8.45986078  5.92381097  7.31322736  1
  Mo  Mo97  1  7.36772966  7.48120247  4.44405720  1
  Mo  Mo98  1  11.09090485  9.62153720  4.92966284  1
  Mo  Mo99  1  11.87105525  7.40131078  6.62663146  1
  Mo  Mo100  1  11.52700267  9.69696067  2.27839265  1
  Mo  Mo101  1  9.11968711  8.41242819  3.22604155  1
  Mo  Mo102  1  12.44437693  6.97213373  3.90848698  1
  Mo  Mo103  1  8.64205474  10.18504866  5.65650247  1
  Mo  Mo104  1  11.34996205  12.65775903  1.37688553  1
  Mo  Mo105  1  7.68034586  11.98067547  1.08972822  1
  Mo  Mo106  1  10.09866316  6.80099115  5.05065219  1
  Mo  Mo107  1  6.90022525  10.65391339  3.87139086  1
  Mo  Mo108  1  10.17521858  11.49920044  3.48216959  1
  Mo  Mo109  1  12.92356820  11.75944916  3.97376264  1
  Mo  Mo110  1  13.14102135  10.50010749  0.45918161  1
  Mo  Mo111  1  7.41293807  12.30854318  5.60586270  1
  Mo  Mo112  1  10.30549189  12.24509452  5.87337971  1
  Mo  Mo113  1  9.05901867  9.91812740  0.89220232  1
  Mo  Mo114  1  13.31577821  7.76972010  0.76904937  1
  Mo  Mo115  1  12.11293464  8.84511031  8.64824074  1
  Mo  Mo116  1  9.46803911  8.13593503  7.57558111  1
  Mo  Mo117  1  12.15821256  9.03390730  11.39345268  1
  Mo  Mo118  1  9.87070474  12.31360716  12.60175740  1
  Mo  Mo119  1  10.51311496  7.99748986  12.91244731  1
  Mo  Mo120  1  10.12636610  10.76442725  8.17862138  1
  Mo  Mo121  1  10.57527280  11.84265726  10.03561168  1
  Mo  Mo122  1  7.07984751  7.49608659  8.95933775  1
  Mo  Mo123  1  12.38559507  11.59750118  11.70533411  1
  Mo  Mo124  1  7.77192442  11.19575897  10.24988743  1
  Mo  Mo125  1  7.05986962  10.05269019  7.63020256  1
  Mo  Mo126  1  9.09963971  8.76918044  10.68727606  1
  Mo  Mo127  1  9.27916268  6.73848578  9.84477916  1
