# generated using pymatgen
data_Mo
_symmetry_space_group_name_H-M   'P 1'
_cell_length_a   13.70252708
_cell_length_b   13.70252708
_cell_length_c   13.70252708
_cell_angle_alpha   90.00000000
_cell_angle_beta   90.00000000
_cell_angle_gamma   90.00000000
_symmetry_Int_Tables_number   1
_chemical_formula_structural   Mo
_chemical_formula_sum   Mo128
_cell_volume   2572.77618306
_cell_formula_units_Z   128
loop_
 _symmetry_equiv_pos_site_id
 _symmetry_equiv_pos_as_xyz
  1  'x, y, z'
loop_
 _atom_site_type_symbol
 _atom_site_label
 _atom_site_symmetry_multiplicity
 _atom_site_fract_x
 _atom_site_fract_y
 _atom_site_fract_z
 _atom_site_occupancy
  Mo  Mo0  1  4.29379608  3.69027920  5.33151427  1
  Mo  Mo1  1  6.23035040  0.64930914  2.48947115  1
  Mo  Mo2  1  2.07976559  1.42185563  3.06054879  1
  Mo  Mo3  1  1.70749374  5.30274890  4.93386297  1
  Mo  Mo4  1  6.28367111  4.90696431  4.21953434  1
  Mo  Mo5  1  6.21081934  1.53987609  4.56551322  1
  Mo  Mo6  1  6.61621555  5.99974084  2.25840484  1
  Mo  Mo7  1  4.63509823  5.76742343  6.75862254  1
  Mo  Mo8  1  3.81480340  0.76093012  4.85508337  1
  Mo  Mo9  1  0.42995055  0.32887356  5.40122836  1
  Mo  Mo10  1  4.97776070  2.87367809  2.41039367  1
  Mo  Mo11  1  2.89795539  4.49589843  2.03887645  1
  Mo  Mo12  1  0.16411159  4.68031657  1.88546773  1
  Mo  Mo13  1  0.67984889  0.71403769  0.29010434  1
  Mo  Mo14  1  0.95747401  3.25410195  6.72220162  1
  Mo  Mo15  1  5.43090724  3.87987054  0.18186828  1
  Mo  Mo16  1  2.42115710  1.38031116  6.82315350  1
  Mo  Mo17  1  3.82033405  3.36187530  8.10995980  1
  Mo  Mo18  1  4.74450993  1.08742461  10.13172795  1
  Mo  Mo19  1  1.26787100  6.12646936  11.29167666  1
  Mo  Mo20  1  5.66413815  4.29946575  11.04890363  1
  Mo  Mo21  1  5.26333924  0.73702021  12.34548043  1
  Mo  Mo22  1  0.95630929  1.24194542  10.57706008  1
  Mo  Mo23  1  1.50170760  3.65005533  9.57953597  1
  Mo  Mo24  1  2.54469829  2.63849109  13.35817661  1
  Mo  Mo25  1  6.80594590  4.37251611  7.02060890  1
  Mo  Mo26  1  0.76542217  4.83374515  12.88484367  1
  Mo  Mo27  1  1.81015347  6.78682194  8.21021663  1
  Mo  Mo28  1  4.39543309  5.67064189  10.04087424  1
  Mo  Mo29  1  4.18058143  6.26987922  13.53134478  1
  Mo  Mo30  1  5.56898503  0.64994859  6.97808142  1
  Mo  Mo31  1  0.50025841  8.06033282  4.49812261  1
  Mo  Mo32  1  2.92253058  12.30198980  5.98962282  1
  Mo  Mo33  1  3.29192291  9.69145980  3.57244740  1
  Mo  Mo34  1  1.76738769  8.20223341  2.31132837  1
  Mo  Mo35  1  4.90573307  11.73005823  1.86992827  1
  Mo  Mo36  1  1.78207322  10.59850752  1.40891766  1
  Mo  Mo37  1  6.71731637  10.02449079  3.47789003  1
  Mo  Mo38  1  1.17632223  9.92086791  6.26710892  1
  Mo  Mo39  1  4.40571991  8.00551279  2.05186407  1
  Mo  Mo40  1  2.60434400  11.94105729  3.52734821  1
  Mo  Mo41  1  2.49643163  8.30587615  0.00199921  1
  Mo  Mo42  1  5.73017838  12.24608746  5.19719972  1
  Mo  Mo43  1  5.28488596  9.77729918  6.23177030  1
  Mo  Mo44  1  6.05563325  7.53945807  4.58419036  1
  Mo  Mo45  1  3.26280007  8.61676465  6.02664943  1
  Mo  Mo46  1  6.72512085  9.48049053  0.82792654  1
  Mo  Mo47  1  3.56327266  13.54097627  2.08191033  1
  Mo  Mo48  1  4.01388721  13.16296525  8.04562743  1
  Mo  Mo49  1  3.44030737  11.94066012  10.65351621  1
  Mo  Mo50  1  0.98048035  10.34183337  12.03449264  1
  Mo  Mo51  1  5.60828546  10.90969389  10.69075134  1
  Mo  Mo52  1  0.94889404  9.40749975  9.45994667  1
  Mo  Mo53  1  5.89283135  8.30879539  10.48253251  1
  Mo  Mo54  1  5.36198750  7.72016262  8.20992867  1
  Mo  Mo55  1  3.59242528  9.60665307  9.00440715  1
  Mo  Mo56  1  0.27742752  12.04958528  8.39869588  1
  Mo  Mo57  1  3.37271817  8.89412167  11.55490419  1
  Mo  Mo58  1  4.27550619  10.75231342  13.42420691  1
  Mo  Mo59  1  2.50284601  12.56501874  13.56222511  1
  Mo  Mo60  1  6.69011983  7.08893288  13.01839366  1
  Mo  Mo61  1  6.66191050  11.69341887  8.18176899  1
  Mo  Mo62  1  0.11487782  8.08272355  12.18829854  1
  Mo  Mo63  1  13.38995059  1.23860915  2.29683149  1
  Mo  Mo64  1  12.75407390  3.40752060  4.03750918  1
  Mo  Mo65  1  8.60531609  5.76027429  5.05707649  1
  Mo  Mo66  1  11.39553784  3.18377224  0.31503996  1
  Mo  Mo67  1  12.01721554  1.73354840  5.88733048  1
  Mo  Mo68  1  12.46860458  5.77022352  5.33715415  1
  Mo  Mo69  1  10.84416007  4.24320596  6.53330533  1
  Mo  Mo70  1  8.78023182  2.25519765  6.02552741  1
  Mo  Mo71  1  7.86035536  3.65733356  3.14209868  1
  Mo  Mo72  1  7.29375587  0.29659616  0.36807271  1
  Mo  Mo73  1  9.45580612  1.76578906  3.16794482  1
  Mo  Mo74  1  10.37519604  5.86063041  2.19535335  1
  Mo  Mo75  1  12.31330928  5.51022303  0.42410711  1
  Mo  Mo76  1  8.19826167  2.92814067  0.67421299  1
  Mo  Mo77  1  12.67424178  6.81699729  2.79958515  1
  Mo  Mo78  1  9.27477390  0.47108792  12.18313527  1
  Mo  Mo79  1  12.07500446  0.83638637  13.40762486  1
  Mo  Mo80  1  9.95250287  4.63297334  10.85240144  1
  Mo  Mo81  1  9.18135841  3.76723180  8.64427892  1
  Mo  Mo82  1  7.79340164  5.22241038  10.92637523  1
  Mo  Mo83  1  9.01668978  6.61123101  9.58417299  1
  Mo  Mo84  1  7.95645178  0.76286536  8.15471146  1
  Mo  Mo85  1  13.08690629  2.71666500  12.09516107  1
  Mo  Mo86  1  12.96159768  4.47520563  7.80774957  1
  Mo  Mo87  1  12.34389173  4.88921060  10.20500669  1
  Mo  Mo88  1  11.09944411  2.32126766  8.35555278  1
  Mo  Mo89  1  11.41211989  0.97529027  10.42484288  1
  Mo  Mo90  1  8.97988161  5.69403548  13.45895969  1
  Mo  Mo91  1  6.90446509  2.65388161  9.86707059  1
  Mo  Mo92  1  9.86916569  6.54739511  7.07502183  1
  Mo  Mo93  1  13.42996594  2.01617792  8.54241354  1
  Mo  Mo94  1  13.67115027  11.94224881  3.10160672  1
  Mo  Mo95  1  8.27079570  11.23080964  5.60310233  1
  Mo  Mo96  1  7.83556173  11.48053323  1.62406720  1
  Mo  Mo97  1  8.85548650  8.33235777  4.22644518  1
  Mo  Mo98  1  8.38574798  13.17080945  3.92667758  1
  Mo  Mo99  1  10.92945334  12.70631364  1.52463451  1
  Mo  Mo100  1  10.96202166  8.41542686  2.59115780  1
  Mo  Mo101  1  11.30915235  13.51784084  4.37540555  1
  Mo  Mo102  1  10.39694136  11.07779809  3.48489023  1
  Mo  Mo103  1  9.82527789  7.78705677  0.76949520  1
  Mo  Mo104  1  11.98117194  8.78867178  5.24726359  1
  Mo  Mo105  1  12.72031405  11.44419174  5.33924925  1
  Mo  Mo106  1  12.69300829  8.71038865  0.49019599  1
  Mo  Mo107  1  12.61377194  9.86507479  2.83171658  1
  Mo  Mo108  1  9.87809219  9.32294126  6.48719335  1
  Mo  Mo109  1  9.68281132  13.65963221  6.05043027  1
  Mo  Mo110  1  7.44175309  7.32393122  6.30973570  1
  Mo  Mo111  1  7.33322510  9.12872283  8.56967959  1
  Mo  Mo112  1  11.83799046  7.81548455  9.57734158  1
  Mo  Mo113  1  11.47258973  6.89790178  12.28183318  1
  Mo  Mo114  1  11.80899670  12.19405757  9.86609752  1
  Mo  Mo115  1  9.20304415  8.20962086  11.75230002  1
  Mo  Mo116  1  12.31986266  10.32971954  8.21455576  1
  Mo  Mo117  1  11.88853094  13.04560013  7.05704968  1
  Mo  Mo118  1  11.01931411  10.41640292  13.33732494  1
  Mo  Mo119  1  12.40465946  10.14423896  10.99478857  1
  Mo  Mo120  1  13.49897504  12.78962103  11.81018823  1
  Mo  Mo121  1  10.26627088  9.57640822  9.33362526  1
  Mo  Mo122  1  9.70745601  12.16109207  8.46767519  1
  Mo  Mo123  1  9.29153467  11.89329703  10.88745211  1
  Mo  Mo124  1  13.52072036  7.52287602  7.47204759  1
  Mo  Mo125  1  6.87674229  11.72221403  12.86289976  1
  Mo  Mo126  1  7.43918138  9.77011032  12.08880628  1
  Mo  Mo127  1  7.21462874  13.36919821  10.38909716  1
