# generated using pymatgen
data_Mo
_symmetry_space_group_name_H-M   'P 1'
_cell_length_a   13.70252708
_cell_length_b   13.70252708
_cell_length_c   13.70252708
_cell_angle_alpha   90.00000000
_cell_angle_beta   90.00000000
_cell_angle_gamma   90.00000000
_symmetry_Int_Tables_number   1
_chemical_formula_structural   Mo
_chemical_formula_sum   Mo128
_cell_volume   2572.77618306
_cell_formula_units_Z   128
loop_
 _symmetry_equiv_pos_site_id
 _symmetry_equiv_pos_as_xyz
  1  'x, y, z'
loop_
 _atom_site_type_symbol
 _atom_site_label
 _atom_site_symmetry_multiplicity
 _atom_site_fract_x
 _atom_site_fract_y
 _atom_site_fract_z
 _atom_site_occupancy
  Mo  Mo0  1  3.21242839  5.87146335  5.31821885  1
  Mo  Mo1  1  3.10394012  2.26212835  6.48402588  1
  Mo  Mo2  1  5.59093886  2.93982754  2.62010191  1
  Mo  Mo3  1  1.26860577  0.40912370  6.46515016  1
  Mo  Mo4  1  4.98545596  0.73467092  0.88737863  1
  Mo  Mo5  1  3.59564240  5.11128090  1.61363143  1
  Mo  Mo6  1  1.89101824  1.01723391  0.71452622  1
  Mo  Mo7  1  2.20777499  2.87251636  2.14995629  1
  Mo  Mo8  1  5.50044260  4.42830922  4.83872970  1
  Mo  Mo9  1  5.41427555  4.36835570  0.52077348  1
  Mo  Mo10  1  3.29261796  2.66716711  4.12585076  1
  Mo  Mo11  1  1.00712581  4.33860732  4.90251595  1
  Mo  Mo12  1  5.98509503  5.63022936  10.90909813  1
  Mo  Mo13  1  0.94737882  6.43822171  9.09457574  1
  Mo  Mo14  1  1.10016398  3.62010836  7.29423248  1
  Mo  Mo15  1  5.32061183  2.60534687  10.64795577  1
  Mo  Mo16  1  3.03648000  6.71651209  10.86600468  1
  Mo  Mo17  1  2.85259804  0.81018277  9.26689991  1
  Mo  Mo18  1  2.37759696  5.49894327  13.10825443  1
  Mo  Mo19  1  4.89054114  3.85142290  7.88338157  1
  Mo  Mo20  1  2.90253283  3.22565431  9.23776714  1
  Mo  Mo21  1  3.90870542  2.55689155  12.92029151  1
  Mo  Mo22  1  1.66832239  3.60724983  11.47288762  1
  Mo  Mo23  1  4.09517895  5.45971234  8.99094293  1
  Mo  Mo24  1  6.16262219  1.61042425  12.84055869  1
  Mo  Mo25  1  5.65354352  1.24521218  7.60718628  1
  Mo  Mo26  1  6.52372349  11.73095188  5.84866552  1
  Mo  Mo27  1  1.77857809  12.86081460  3.52776524  1
  Mo  Mo28  1  4.35209140  8.54763639  4.72794774  1
  Mo  Mo29  1  2.08382670  7.76325608  0.87635207  1
  Mo  Mo30  1  1.00516973  12.09049427  0.91649352  1
  Mo  Mo31  1  5.43262502  12.22225698  2.84680922  1
  Mo  Mo32  1  4.49595800  7.01377749  2.36714134  1
  Mo  Mo33  1  3.24201791  12.67851141  0.55702758  1
  Mo  Mo34  1  3.02291648  10.43318355  2.95302367  1
  Mo  Mo35  1  1.54450318  7.50849830  3.00430885  1
  Mo  Mo36  1  0.26579030  11.31928030  4.70614285  1
  Mo  Mo37  1  5.55008944  10.05834993  1.42777353  1
  Mo  Mo38  1  3.06485813  11.52561256  5.47291840  1
  Mo  Mo39  1  0.03980723  9.83239724  2.42274580  1
  Mo  Mo40  1  0.94975492  9.13453151  5.00141245  1
  Mo  Mo41  1  2.53386535  10.30519400  0.66626552  1
  Mo  Mo42  1  3.33907747  8.75733470  9.55274654  1
  Mo  Mo43  1  3.70444841  13.44555505  6.97562887  1
  Mo  Mo44  1  1.20936717  7.87867505  12.36931091  1
  Mo  Mo45  1  4.43560731  9.37382927  12.35114017  1
  Mo  Mo46  1  6.13410504  8.71994070  10.05914428  1
  Mo  Mo47  1  1.85815204  10.96847575  10.79064078  1
  Mo  Mo48  1  1.34098093  13.61276559  11.63096315  1
  Mo  Mo49  1  0.55415105  9.48111608  9.28498129  1
  Mo  Mo50  1  1.40095431  12.19286605  9.13216832  1
  Mo  Mo51  1  5.67416682  11.26109421  10.79868357  1
  Mo  Mo52  1  3.68354709  11.37458688  8.94331175  1
  Mo  Mo53  1  5.03845892  10.30310884  7.34797022  1
  Mo  Mo54  1  2.29451795  9.92636878  7.06245125  1
  Mo  Mo55  1  0.55968369  10.44777972  12.58259372  1
  Mo  Mo56  1  4.28552492  13.23396023  11.44409245  1
  Mo  Mo57  1  5.90384301  13.44049107  9.44833924  1
  Mo  Mo58  1  5.43734147  7.36984461  13.45657664  1
  Mo  Mo59  1  5.52137371  7.95201335  7.66236378  1
  Mo  Mo60  1  1.91801619  7.64092627  7.14457705  1
  Mo  Mo61  1  6.16656415  12.05315985  13.23386093  1
  Mo  Mo62  1  6.59773700  9.61808178  12.57683469  1
  Mo  Mo63  1  9.75987314  6.26112151  6.68305012  1
  Mo  Mo64  1  13.20248413  2.09293193  3.44652316  1
  Mo  Mo65  1  8.84410744  3.45440708  6.35767468  1
  Mo  Mo66  1  8.17509645  3.54041526  2.33749225  1
  Mo  Mo67  1  7.19967511  6.10963908  6.25306880  1
  Mo  Mo68  1  13.04361425  1.43317511  6.19157622  1
  Mo  Mo69  1  10.40716861  5.78337000  1.97381924  1
  Mo  Mo70  1  9.69809262  1.38767875  2.98092519  1
  Mo  Mo71  1  11.21929157  3.59265366  6.17586796  1
  Mo  Mo72  1  11.31868454  2.79810568  0.18015348  1
  Mo  Mo73  1  11.78308105  3.91326300  3.34669330  1
  Mo  Mo74  1  7.93682142  5.17909848  0.76633269  1
  Mo  Mo75  1  9.32782651  4.95130887  4.74112402  1
  Mo  Mo76  1  10.02250491  1.45904111  6.48028251  1
  Mo  Mo77  1  12.68317821  6.18587677  3.15453025  1
  Mo  Mo78  1  11.35949424  0.17867897  4.54724319  1
  Mo  Mo79  1  12.25323660  0.60108319  1.56009228  1
  Mo  Mo80  1  13.26533703  4.05695088  1.45401685  1
  Mo  Mo81  1  6.86861014  1.64476000  4.53330235  1
  Mo  Mo82  1  10.34153549  6.27007780  10.68201350  1
  Mo  Mo83  1  11.17798540  4.50084325  8.23472230  1
  Mo  Mo84  1  7.61689720  1.75032903  8.94362949  1
  Mo  Mo85  1  10.66116183  6.57228803  12.84750925  1
  Mo  Mo86  1  8.72443871  4.89961658  12.32145136  1
  Mo  Mo87  1  7.57758684  4.41122078  9.28552740  1
  Mo  Mo88  1  11.22981670  0.53632485  9.73885267  1
  Mo  Mo89  1  13.57602693  1.11233739  13.09405544  1
  Mo  Mo90  1  8.82178623  2.76856581  10.74675297  1
  Mo  Mo91  1  9.50809417  1.44126754  12.72607308  1
  Mo  Mo92  1  12.68496550  4.46066903  12.91661764  1
  Mo  Mo93  1  11.96051885  2.81681260  11.41976550  1
  Mo  Mo94  1  13.40176654  4.03259414  9.54881451  1
  Mo  Mo95  1  13.65526329  1.29243625  9.72135713  1
  Mo  Mo96  1  13.20715093  6.77626703  10.86511103  1
  Mo  Mo97  1  9.97980863  7.97677720  2.12803224  1
  Mo  Mo98  1  10.67277919  11.08991191  1.95435768  1
  Mo  Mo99  1  7.18454276  7.53386783  2.22838836  1
  Mo  Mo100  1  9.87141966  10.45244652  6.37116869  1
  Mo  Mo101  1  7.81282348  9.24258289  4.84995981  1
  Mo  Mo102  1  13.36046037  7.45925857  0.76457718  1
  Mo  Mo103  1  7.85935250  13.48358452  1.59338545  1
  Mo  Mo104  1  9.34633485  12.31896902  5.05504097  1
  Mo  Mo105  1  8.51905967  9.62454580  0.99584605  1
  Mo  Mo106  1  11.51220791  11.22445484  4.10917935  1
  Mo  Mo107  1  7.95205307  11.49731386  3.05833454  1
  Mo  Mo108  1  12.06229487  7.72397550  5.11946270  1
  Mo  Mo109  1  9.86612730  9.70267999  12.70601576  1
  Mo  Mo110  1  7.75887723  7.37694411  11.03520110  1
  Mo  Mo111  1  8.53950424  9.35769404  9.98715636  1
  Mo  Mo112  1  13.42817865  9.69867845  7.25480296  1
  Mo  Mo113  1  11.84513960  9.13334992  11.01196638  1
  Mo  Mo114  1  10.25018531  11.66521946  10.81536490  1
  Mo  Mo115  1  12.82546605  6.96544133  7.12145156  1
  Mo  Mo116  1  9.14561269  13.08611194  8.81918473  1
  Mo  Mo117  1  7.96920109  12.10290598  11.50446300  1
  Mo  Mo118  1  12.34230303  9.37838685  13.53551512  1
  Mo  Mo119  1  11.71079526  11.82399005  7.20279293  1
  Mo  Mo120  1  7.78074170  8.64801237  7.35467254  1
  Mo  Mo121  1  12.95971110  12.17439743  10.85825977  1
  Mo  Mo122  1  11.09666388  8.76788962  8.64544066  1
  Mo  Mo123  1  11.45501475  13.66668206  12.32353652  1
  Mo  Mo124  1  9.05653633  6.97081312  8.97965324  1
  Mo  Mo125  1  9.26267993  12.56154346  13.52042248  1
  Mo  Mo126  1  7.90187998  7.62167323  13.45161196  1
  Mo  Mo127  1  11.90848897  11.79767722  13.50642207  1
