# generated using pymatgen
data_Mo
_symmetry_space_group_name_H-M   'P 1'
_cell_length_a   14.29828912
_cell_length_b   14.29828912
_cell_length_c   14.29828912
_cell_angle_alpha   90.00000000
_cell_angle_beta   90.00000000
_cell_angle_gamma   90.00000000
_symmetry_Int_Tables_number   1
_chemical_formula_structural   Mo
_chemical_formula_sum   Mo128
_cell_volume   2923.15755361
_cell_formula_units_Z   128
loop_
 _symmetry_equiv_pos_site_id
 _symmetry_equiv_pos_as_xyz
  1  'x, y, z'
loop_
 _atom_site_type_symbol
 _atom_site_label
 _atom_site_symmetry_multiplicity
 _atom_site_fract_x
 _atom_site_fract_y
 _atom_site_fract_z
 _atom_site_occupancy
  Mo  Mo0  1  1.29830451  0.78529481  1.79327355  1
  Mo  Mo1  1  1.95961031  3.57428433  1.13829275  1
  Mo  Mo2  1  2.53541433  3.55082123  3.44106201  1
  Mo  Mo3  1  6.26785362  2.52987374  0.76863631  1
  Mo  Mo4  1  4.63716354  1.85513351  3.46030512  1
  Mo  Mo5  1  0.68491089  6.89172571  2.24533779  1
  Mo  Mo6  1  7.09430466  5.48079238  2.97449096  1
  Mo  Mo7  1  3.49328055  2.78181158  6.01466468  1
  Mo  Mo8  1  1.32601738  2.66139814  6.57701441  1
  Mo  Mo9  1  0.24592164  2.11466731  4.40193682  1
  Mo  Mo10  1  6.40930739  1.43351271  5.88739998  1
  Mo  Mo11  1  0.69485316  5.77695563  5.88044942  1
  Mo  Mo12  1  3.04392703  5.36982177  7.00317293  1
  Mo  Mo13  1  5.04138809  3.91375947  4.31432008  1
  Mo  Mo14  1  3.69841135  5.79374619  3.66396638  1
  Mo  Mo15  1  6.56320266  3.88794312  7.14215429  1
  Mo  Mo16  1  1.00027455  1.16926245  10.00284477  1
  Mo  Mo17  1  3.59926662  0.36371968  10.37549393  1
  Mo  Mo18  1  6.22008344  0.09186849  8.11936291  1
  Mo  Mo19  1  4.83309975  2.24871377  8.01868906  1
  Mo  Mo20  1  1.75274187  4.31332715  8.92813968  1
  Mo  Mo21  1  5.77279522  5.03179632  9.08470595  1
  Mo  Mo22  1  1.35363095  1.39725066  12.71763312  1
  Mo  Mo23  1  2.98766723  3.01007781  13.59866589  1
  Mo  Mo24  1  2.49224144  3.26606683  10.75827104  1
  Mo  Mo25  1  4.69419782  2.94087012  11.75289578  1
  Mo  Mo26  1  4.45898104  0.24780424  13.34616208  1
  Mo  Mo27  1  6.37550783  0.15401343  11.70990162  1
  Mo  Mo28  1  3.47196220  6.26998844  13.91918587  1
  Mo  Mo29  1  0.73805783  6.73983618  11.88664436  1
  Mo  Mo30  1  0.44135045  3.99996624  11.84315373  1
  Mo  Mo31  1  3.88489480  6.95168916  11.24689521  1
  Mo  Mo32  1  3.64036427  9.16912543  2.97487820  1
  Mo  Mo33  1  4.66226498  8.18780604  1.51742579  1
  Mo  Mo34  1  7.04398263  7.63757015  1.45638997  1
  Mo  Mo35  1  2.74001888  11.92646112  2.22335417  1
  Mo  Mo36  1  5.59707521  11.14958741  2.11015938  1
  Mo  Mo37  1  5.30363261  13.57235307  1.62778078  1
  Mo  Mo38  1  1.71345136  8.28825152  4.90216843  1
  Mo  Mo39  1  5.01443978  7.79587405  6.42510502  1
  Mo  Mo40  1  5.85228974  8.63065583  4.51356277  1
  Mo  Mo41  1  1.53298511  14.05104787  5.75120878  1
  Mo  Mo42  1  2.22494287  10.79729345  4.43213203  1
  Mo  Mo43  1  3.23327013  14.04737401  4.32453740  1
  Mo  Mo44  1  4.80458260  11.20400035  5.95753110  1
  Mo  Mo45  1  0.60753232  7.52665911  9.52462657  1
  Mo  Mo46  1  3.09994852  8.68154384  8.61860158  1
  Mo  Mo47  1  6.27473468  10.07552774  7.85759500  1
  Mo  Mo48  1  7.10196021  8.27729943  9.69910542  1
  Mo  Mo49  1  0.53112683  12.87769452  7.88940869  1
  Mo  Mo50  1  1.64745086  12.52798220  9.73410644  1
  Mo  Mo51  1  2.89833271  13.89456104  7.56268286  1
  Mo  Mo52  1  5.69076872  12.33882775  10.11484803  1
  Mo  Mo53  1  0.97123810  9.22104609  11.35760766  1
  Mo  Mo54  1  1.46373770  7.43286631  14.24635853  1
  Mo  Mo55  1  3.56544719  9.97663124  14.12035486  1
  Mo  Mo56  1  5.21292784  10.11167063  10.97840512  1
  Mo  Mo57  1  2.31485329  11.90322640  14.22342169  1
  Mo  Mo58  1  3.23390561  10.83720951  11.46683070  1
  Mo  Mo59  1  1.82313116  12.92327032  12.06368498  1
  Mo  Mo60  1  5.67287600  11.73591656  13.86050331  1
  Mo  Mo61  1  8.16353867  0.25416202  3.15288197  1
  Mo  Mo62  1  7.16967849  2.44853237  3.40244670  1
  Mo  Mo63  1  11.07174117  1.93745789  2.04353333  1
  Mo  Mo64  1  13.63709254  2.67808941  2.09354755  1
  Mo  Mo65  1  8.99864812  4.99538533  1.03463016  1
  Mo  Mo66  1  10.66761592  4.90753028  2.71989205  1
  Mo  Mo67  1  13.42420691  4.09626125  0.57354906  1
  Mo  Mo68  1  13.12265202  6.77184846  1.28737228  1
  Mo  Mo69  1  8.77170250  2.59590404  5.45272206  1
  Mo  Mo70  1  11.32583368  1.75628666  5.97435145  1
  Mo  Mo71  1  9.18836854  5.11703001  4.88014509  1
  Mo  Mo72  1  8.61773772  6.82770115  6.05067850  1
  Mo  Mo73  1  13.59548849  4.06926330  4.05349546  1
  Mo  Mo74  1  10.87275665  4.71741269  6.04651809  1
  Mo  Mo75  1  11.69699344  7.14819134  4.81825534  1
  Mo  Mo76  1  8.45699119  0.18973432  7.41295792  1
  Mo  Mo77  1  7.64673495  1.81868280  9.98159592  1
  Mo  Mo78  1  10.90413345  0.82752143  8.81696055  1
  Mo  Mo79  1  12.72537803  3.37059329  10.44430444  1
  Mo  Mo80  1  13.55686326  1.34387038  7.30666405  1
  Mo  Mo81  1  12.91810705  0.80117087  10.02518584  1
  Mo  Mo82  1  9.52002927  5.59688655  9.95121205  1
  Mo  Mo83  1  12.71326420  5.46728844  9.69187684  1
  Mo  Mo84  1  13.84382197  6.99500106  7.65649552  1
  Mo  Mo85  1  12.64733320  4.77662150  7.59467528  1
  Mo  Mo86  1  10.87126724  3.99479304  8.85365949  1
  Mo  Mo87  1  9.74432375  1.19232837  13.12692164  1
  Mo  Mo88  1  9.34372342  3.31276465  11.26466878  1
  Mo  Mo89  1  7.47509591  0.91450467  13.94440647  1
  Mo  Mo90  1  12.80094051  1.97225040  13.04828105  1
  Mo  Mo91  1  7.27833556  4.62928955  12.48796685  1
  Mo  Mo92  1  8.98387322  6.43759616  13.66936299  1
  Mo  Mo93  1  10.76134914  4.56605934  13.35559498  1
  Mo  Mo94  1  11.55559925  6.69953287  12.09466461  1
  Mo  Mo95  1  10.63008291  7.94540040  2.57055436  1
  Mo  Mo96  1  7.82364649  10.03134205  0.69379171  1
  Mo  Mo97  1  8.55943248  8.54581932  2.99641500  1
  Mo  Mo98  1  12.29930887  9.66540514  3.27393089  1
  Mo  Mo99  1  14.09463780  9.35694934  1.51529098  1
  Mo  Mo100  1  7.39837168  12.21044103  2.88177053  1
  Mo  Mo101  1  11.04949939  10.83383353  0.53819058  1
  Mo  Mo102  1  11.85000499  13.78980622  0.48485101  1
  Mo  Mo103  1  14.09781519  13.26086881  2.42680691  1
  Mo  Mo104  1  9.79939203  10.10809606  5.71396372  1
  Mo  Mo105  1  7.44343115  10.67605588  5.63958283  1
  Mo  Mo106  1  9.62568767  10.96688705  3.74132608  1
  Mo  Mo107  1  9.84288266  14.28528165  4.35661919  1
  Mo  Mo108  1  7.65709128  13.33623271  5.42011402  1
  Mo  Mo109  1  12.23298069  14.28021767  5.53562235  1
  Mo  Mo110  1  13.97449245  11.11652262  6.25831150  1
  Mo  Mo111  1  10.55720135  9.20397751  9.54412785  1
  Mo  Mo112  1  8.59490018  9.52560958  8.39308579  1
  Mo  Mo113  1  11.02368303  7.21520464  8.13601446  1
  Mo  Mo114  1  10.19815542  12.46503001  7.95211265  1
  Mo  Mo115  1  9.04609064  13.92961171  10.10640807  1
  Mo  Mo116  1  7.46648714  12.05226621  8.42500870  1
  Mo  Mo117  1  12.40763827  11.54616635  8.63926459  1
  Mo  Mo118  1  13.46253426  10.91952397  10.23390115  1
  Mo  Mo119  1  10.27679601  9.22749025  13.24240019  1
  Mo  Mo120  1  7.82574159  8.29479498  13.29671383  1
  Mo  Mo121  1  12.69191606  8.87554382  10.79530758  1
  Mo  Mo122  1  13.31270011  8.32620157  12.97966913  1
  Mo  Mo123  1  13.35072959  10.58053536  12.72587449  1
  Mo  Mo124  1  8.06192152  10.91753809  11.08782675  1
  Mo  Mo125  1  9.24468791  12.78554999  14.25162110  1
  Mo  Mo126  1  11.54279036  12.35064370  11.41688598  1
  Mo  Mo127  1  13.33106944  13.54286285  12.85108382  1
