# generated using pymatgen
data_Mo
_symmetry_space_group_name_H-M   'P 1'
_cell_length_a   14.69546382
_cell_length_b   14.69546382
_cell_length_c   14.69546382
_cell_angle_alpha   90.00000000
_cell_angle_beta   90.00000000
_cell_angle_gamma   90.00000000
_symmetry_Int_Tables_number   1
_chemical_formula_structural   Mo
_chemical_formula_sum   Mo128
_cell_volume   3173.58323820
_cell_formula_units_Z   128
loop_
 _symmetry_equiv_pos_site_id
 _symmetry_equiv_pos_as_xyz
  1  'x, y, z'
loop_
 _atom_site_type_symbol
 _atom_site_label
 _atom_site_symmetry_multiplicity
 _atom_site_fract_x
 _atom_site_fract_y
 _atom_site_fract_z
 _atom_site_occupancy
  Mo  Mo0  1  1.24210429  2.88931685  2.35261468  1
  Mo  Mo1  1  1.14495536  0.99817945  0.78760438  1
  Mo  Mo2  1  3.76129404  1.63431431  0.13474946  1
  Mo  Mo3  1  4.79169428  2.48849807  2.66093146  1
  Mo  Mo4  1  2.43958601  6.13483982  0.82042193  1
  Mo  Mo5  1  5.25458154  6.44055511  3.10463518  1
  Mo  Mo6  1  4.09597329  4.11261491  0.05485231  1
  Mo  Mo7  1  1.19866331  2.92269938  6.21595282  1
  Mo  Mo8  1  3.10494299  1.40630624  6.58834382  1
  Mo  Mo9  1  2.06995537  1.54653870  4.09735348  1
  Mo  Mo10  1  4.81917877  1.28572400  4.78082163  1
  Mo  Mo11  1  7.01515768  2.37694163  6.02954881  1
  Mo  Mo12  1  2.88377626  5.04853723  4.85820119  1
  Mo  Mo13  1  0.32497430  6.17978013  4.42402967  1
  Mo  Mo14  1  5.10226504  4.27237844  6.31996294  1
  Mo  Mo15  1  2.78188109  1.61741452  9.22485897  1
  Mo  Mo16  1  0.07934001  1.17512078  9.15057737  1
  Mo  Mo17  1  7.09125635  0.04850853  10.61806837  1
  Mo  Mo18  1  5.28699099  2.20409120  8.17298150  1
  Mo  Mo19  1  2.97278311  3.86642618  8.42513778  1
  Mo  Mo20  1  1.48268294  5.67030429  8.37915488  1
  Mo  Mo21  1  4.33128937  6.61095299  8.35051859  1
  Mo  Mo22  1  4.55969461  3.95019032  10.81248539  1
  Mo  Mo23  1  6.48526705  5.53415280  9.26223311  1
  Mo  Mo24  1  2.02876836  1.44425628  13.03825239  1
  Mo  Mo25  1  0.24276013  0.52157875  11.70612846  1
  Mo  Mo26  1  6.29589416  1.58367453  13.57255166  1
  Mo  Mo27  1  4.45629018  0.99970857  12.30745095  1
  Mo  Mo28  1  3.45726673  5.34837434  11.76352020  1
  Mo  Mo29  1  0.96962160  6.73155508  12.46989540  1
  Mo  Mo30  1  0.68705265  3.93401538  13.08303384  1
  Mo  Mo31  1  7.19588209  5.69957607  13.25888294  1
  Mo  Mo32  1  1.48708164  8.97616803  3.64456439  1
  Mo  Mo33  1  3.43912578  8.15846476  2.08233729  1
  Mo  Mo34  1  0.16184968  9.04612042  1.33848866  1
  Mo  Mo35  1  6.32973344  10.61201146  1.83736987  1
  Mo  Mo36  1  6.52092341  7.56654538  0.51589419  1
  Mo  Mo37  1  2.12981953  11.85437391  1.44849612  1
  Mo  Mo38  1  2.48740584  13.70580377  2.16571419  1
  Mo  Mo39  1  6.06735984  13.42966806  0.94047096  1
  Mo  Mo40  1  2.12436831  10.44311292  5.89003126  1
  Mo  Mo41  1  1.91603032  8.26345789  6.71873627  1
  Mo  Mo42  1  6.05672548  7.48512457  5.75364147  1
  Mo  Mo43  1  5.79180003  9.12863347  3.90620322  1
  Mo  Mo44  1  3.95321878  7.73678439  4.47631771  1
  Mo  Mo45  1  4.16025602  10.89887088  4.14475628  1
  Mo  Mo46  1  6.97193514  10.95834779  6.21698547  1
  Mo  Mo47  1  2.70351852  13.07469317  5.69015310  1
  Mo  Mo48  1  0.79783063  13.59658073  6.09649260  1
  Mo  Mo49  1  5.06819738  13.33265814  4.53854506  1
  Mo  Mo50  1  1.39124339  9.92331053  8.79065766  1
  Mo  Mo51  1  1.94472619  8.03631368  9.70210408  1
  Mo  Mo52  1  3.95234499  8.15793851  10.82797520  1
  Mo  Mo53  1  3.85174064  9.44204402  7.57797408  1
  Mo  Mo54  1  1.41731791  13.27874167  9.19936035  1
  Mo  Mo55  1  4.83870984  14.28965057  9.61692997  1
  Mo  Mo56  1  5.53335846  11.50327148  9.93562295  1
  Mo  Mo57  1  4.28147374  12.92287314  7.87986657  1
  Mo  Mo58  1  0.60120731  9.55384870  12.99218013  1
  Mo  Mo59  1  3.52968161  10.40289898  14.47443610  1
  Mo  Mo60  1  7.20932646  9.72146635  12.84899865  1
  Mo  Mo61  1  1.64516710  13.86795034  13.93318628  1
  Mo  Mo62  1  2.94774124  14.31606269  11.15792808  1
  Mo  Mo63  1  2.05097042  11.76510890  11.49036330  1
  Mo  Mo64  1  4.79306454  13.65099366  13.46898835  1
  Mo  Mo65  1  8.00742915  0.21500754  3.36653217  1
  Mo  Mo66  1  8.49601361  2.38801287  3.59826375  1
  Mo  Mo67  1  11.09011050  2.43101696  1.38765889  1
  Mo  Mo68  1  13.16137655  1.93492590  0.85508535  1
  Mo  Mo69  1  9.68562133  5.84138729  1.05515416  1
  Mo  Mo70  1  8.05945904  3.95388405  1.57643602  1
  Mo  Mo71  1  12.78723798  7.05450776  0.94395518  1
  Mo  Mo72  1  13.76021670  4.85038677  0.96556545  1
  Mo  Mo73  1  10.81089669  2.10064705  5.88642690  1
  Mo  Mo74  1  13.58178597  0.14258770  4.37336010  1
  Mo  Mo75  1  12.15463798  2.75718675  4.01766037  1
  Mo  Mo76  1  7.50013777  5.46200602  6.68150114  1
  Mo  Mo77  1  8.45861961  4.76183668  4.13945399  1
  Mo  Mo78  1  11.66909192  5.54190764  4.67772500  1
  Mo  Mo79  1  13.29730959  4.15564879  7.34647088  1
  Mo  Mo80  1  7.70375931  0.93175099  8.45931467  1
  Mo  Mo81  1  7.95391979  2.41564630  11.01583883  1
  Mo  Mo82  1  11.12337388  1.35839704  7.66843062  1
  Mo  Mo83  1  11.82796180  3.01889509  10.22158873  1
  Mo  Mo84  1  14.24208890  3.16597881  10.87523899  1
  Mo  Mo85  1  10.32852802  5.21008804  9.96670187  1
  Mo  Mo86  1  9.15555198  4.17114854  7.59100141  1
  Mo  Mo87  1  11.20161730  5.40159575  8.22879447  1
  Mo  Mo88  1  14.63628479  6.15135236  10.42762310  1
  Mo  Mo89  1  10.02866112  3.65954781  12.35004794  1
  Mo  Mo90  1  10.01525647  0.21810650  13.08372890  1
  Mo  Mo91  1  12.39572303  2.31141773  13.10408410  1
  Mo  Mo92  1  13.56768627  0.14054424  13.73032930  1
  Mo  Mo93  1  10.61379874  7.29847232  12.50395313  1
  Mo  Mo94  1  11.69163158  4.47737023  14.34426209  1
  Mo  Mo95  1  12.18740490  5.32778083  12.15155988  1
  Mo  Mo96  1  10.71815640  7.97742261  2.88355781  1
  Mo  Mo97  1  9.06774659  8.71953360  1.24685053  1
  Mo  Mo98  1  11.74018619  10.89867230  2.89788589  1
  Mo  Mo99  1  13.16465324  9.07230417  3.33982218  1
  Mo  Mo100  1  10.43318355  14.52706175  2.35697367  1
  Mo  Mo101  1  9.27286746  11.61914720  1.07152769  1
  Mo  Mo102  1  13.59618355  11.59849411  3.44757567  1
  Mo  Mo103  1  13.26484056  12.35769355  0.52182996  1
  Mo  Mo104  1  11.29544982  13.60293552  0.45020149  1
  Mo  Mo105  1  10.70902138  9.54313491  6.26283929  1
  Mo  Mo106  1  8.93920100  8.70237565  4.00507987  1
  Mo  Mo107  1  14.53262219  9.85330849  5.80429118  1
  Mo  Mo108  1  14.18598798  7.83596884  6.63657075  1
  Mo  Mo109  1  10.27977482  12.62568718  6.12099828  1
  Mo  Mo110  1  7.86063339  14.08401337  6.39396652  1
  Mo  Mo111  1  7.67970045  12.49005202  4.25770283  1
  Mo  Mo112  1  12.90758192  13.08631053  6.10722625  1
  Mo  Mo113  1  7.55294215  8.55847926  9.00594620  1
  Mo  Mo114  1  9.08152855  8.34043035  10.87414676  1
  Mo  Mo115  1  12.79359278  10.47617771  7.39697164  1
  Mo  Mo116  1  12.89417727  8.69763934  9.56784911  1
  Mo  Mo117  1  10.40438838  11.13032444  10.14265026  1
  Mo  Mo118  1  9.05292204  13.31597680  8.96960472  1
  Mo  Mo119  1  9.03687618  11.29991803  7.62679678  1
  Mo  Mo120  1  12.96566872  13.70212990  9.21113658  1
  Mo  Mo121  1  12.63372996  10.79024360  11.11374240  1
  Mo  Mo122  1  11.12684916  9.82660842  14.62059639  1
  Mo  Mo123  1  10.57815232  11.03371169  13.07588470  1
  Mo  Mo124  1  8.44793561  13.05979912  13.18808655  1
  Mo  Mo125  1  7.58637433  12.17181579  11.18990064  1
  Mo  Mo126  1  13.86129766  13.10170105  12.19653992  1
  Mo  Mo127  1  11.60127434  14.23841504  11.56175545  1
