# generated using pymatgen
data_Mo
_symmetry_space_group_name_H-M   'P 1'
_cell_length_a   14.69546382
_cell_length_b   14.69546382
_cell_length_c   14.69546382
_cell_angle_alpha   90.00000000
_cell_angle_beta   90.00000000
_cell_angle_gamma   90.00000000
_symmetry_Int_Tables_number   1
_chemical_formula_structural   Mo
_chemical_formula_sum   Mo128
_cell_volume   3173.58323820
_cell_formula_units_Z   128
loop_
 _symmetry_equiv_pos_site_id
 _symmetry_equiv_pos_as_xyz
  1  'x, y, z'
loop_
 _atom_site_type_symbol
 _atom_site_label
 _atom_site_symmetry_multiplicity
 _atom_site_fract_x
 _atom_site_fract_y
 _atom_site_fract_z
 _atom_site_occupancy
  Mo  Mo0  1  0.57931306  3.55708666  2.71412309  1
  Mo  Mo1  1  2.88709267  2.43113611  0.82580762  1
  Mo  Mo2  1  6.09673091  1.62675806  0.03514321  1
  Mo  Mo3  1  5.88994190  0.89585235  2.67800998  1
  Mo  Mo4  1  2.21425887  6.85662540  1.02144396  1
  Mo  Mo5  1  5.92735576  6.91749242  0.66813919  1
  Mo  Mo6  1  3.96625604  5.25256587  0.75948838  1
  Mo  Mo7  1  5.14730465  6.04380738  3.27250106  1
  Mo  Mo8  1  7.14512317  4.88761197  3.53337534  1
  Mo  Mo9  1  0.00391403  3.16264254  6.57766975  1
  Mo  Mo10  1  2.29106253  1.69506218  4.16659096  1
  Mo  Mo11  1  0.66768641  1.01974604  7.17795959  1
  Mo  Mo12  1  3.55395891  2.35056923  7.24505232  1
  Mo  Mo13  1  7.20165106  2.51391725  4.63053072  1
  Mo  Mo14  1  5.67347176  0.10127260  5.23677818  1
  Mo  Mo15  1  2.38094316  5.01124253  4.68230244  1
  Mo  Mo16  1  0.25397634  6.53779341  5.85689696  1
  Mo  Mo17  1  7.07809994  6.52386251  5.72293987  1
  Mo  Mo18  1  4.87440591  3.75026251  3.85610957  1
  Mo  Mo19  1  3.98074299  4.48071642  6.48398617  1
  Mo  Mo20  1  0.05783241  2.54399330  9.21519769  1
  Mo  Mo21  1  4.72552498  1.47041024  10.53337087  1
  Mo  Mo22  1  7.05558013  1.70534900  7.93032762  1
  Mo  Mo23  1  2.38472625  5.47695965  10.04851986  1
  Mo  Mo24  1  5.78018267  4.81616024  8.50741252  1
  Mo  Mo25  1  6.75372736  6.49253535  9.15711089  1
  Mo  Mo26  1  2.56048598  2.77219996  12.95752664  1
  Mo  Mo27  1  4.63516774  0.76896795  12.86369411  1
  Mo  Mo28  1  6.79923365  1.86342453  12.03826580  1
  Mo  Mo29  1  0.92048513  5.47852849  12.14590014  1
  Mo  Mo30  1  3.35172749  6.63885451  12.32929556  1
  Mo  Mo31  1  4.39555224  3.78458833  11.80373414  1
  Mo  Mo32  1  5.44080682  6.85110467  12.34121080  1
  Mo  Mo33  1  5.88835320  4.48062706  13.76647220  1
  Mo  Mo34  1  0.98223785  10.70127647  0.80241105  1
  Mo  Mo35  1  6.29446433  8.75224094  3.66616077  1
  Mo  Mo36  1  3.94235605  10.44619102  0.55657977  1
  Mo  Mo37  1  0.71759042  14.13872419  2.95924938  1
  Mo  Mo38  1  5.39584665  13.50453549  0.12464136  1
  Mo  Mo39  1  5.89796483  12.33068567  2.45248425  1
  Mo  Mo40  1  3.95352659  14.42121469  1.62468282  1
  Mo  Mo41  1  3.16186805  9.01853664  4.33634342  1
  Mo  Mo42  1  1.51215330  10.52820760  5.89367534  1
  Mo  Mo43  1  4.09045257  7.92184794  6.56417574  1
  Mo  Mo44  1  1.22891809  13.01084734  6.98853704  1
  Mo  Mo45  1  1.16812057  11.93043287  3.82429587  1
  Mo  Mo46  1  3.32885022  13.44982467  5.27639636  1
  Mo  Mo47  1  3.78879838  11.29276889  4.24225274  1
  Mo  Mo48  1  2.96530629  9.82541690  8.72163863  1
  Mo  Mo49  1  1.18985596  7.98814632  10.58162759  1
  Mo  Mo50  1  0.73868338  9.05227663  7.97453316  1
  Mo  Mo51  1  3.31852368  13.64314946  9.10425687  1
  Mo  Mo52  1  5.94919043  12.22503720  8.44897819  1
  Mo  Mo53  1  2.13917299  9.03526763  12.26584690  1
  Mo  Mo54  1  4.66738853  8.86054055  14.02632375  1
  Mo  Mo55  1  6.84330019  10.06490331  14.68573304  1
  Mo  Mo56  1  2.76459406  13.46839259  13.03864957  1
  Mo  Mo57  1  0.81821364  11.79847157  11.26615819  1
  Mo  Mo58  1  0.86274983  14.27644451  14.52974268  1
  Mo  Mo59  1  4.76161823  11.81108187  11.52223657  1
  Mo  Mo60  1  9.06709125  2.30017769  2.81352598  1
  Mo  Mo61  1  13.73082577  1.90881167  1.13580048  1
  Mo  Mo62  1  11.24510793  2.09854202  1.40028904  1
  Mo  Mo63  1  9.79744587  4.47394460  1.76317764  1
  Mo  Mo64  1  7.43374009  3.67940654  0.72203381  1
  Mo  Mo65  1  10.41809091  6.39031251  0.60665556  1
  Mo  Mo66  1  14.19621523  7.04817282  2.04072332  1
  Mo  Mo67  1  12.77681215  4.32573886  1.98469189  1
  Mo  Mo68  1  9.15744849  1.29735129  7.26876365  1
  Mo  Mo69  1  10.37668545  0.42201599  4.36463219  1
  Mo  Mo70  1  12.58299090  2.43296312  5.19363508  1
  Mo  Mo71  1  14.33612001  0.74944582  4.95237131  1
  Mo  Mo72  1  10.76919334  4.17274716  4.13539288  1
  Mo  Mo73  1  10.97413549  6.63897366  4.11070848  1
  Mo  Mo74  1  10.25197259  3.70163840  6.45365195  1
  Mo  Mo75  1  9.34840016  6.57112629  5.84589523  1
  Mo  Mo76  1  7.86583637  4.05187697  6.70452735  1
  Mo  Mo77  1  13.02931596  4.65105472  4.46584223  1
  Mo  Mo78  1  9.03675703  2.65904488  9.68828240  1
  Mo  Mo79  1  7.53961694  0.43375349  9.93969399  1
  Mo  Mo80  1  11.46395119  1.87459507  8.24788865  1
  Mo  Mo81  1  12.05365632  3.36794214  9.86868908  1
  Mo  Mo82  1  14.66597360  0.32566141  10.11067770  1
  Mo  Mo83  1  9.42098383  5.99851953  8.69001359  1
  Mo  Mo84  1  14.27882756  4.97572518  9.66879106  1
  Mo  Mo85  1  12.76360609  7.05476592  10.74784520  1
  Mo  Mo86  1  12.50325808  4.56083649  7.46537506  1
  Mo  Mo87  1  10.78289587  0.53769610  11.61547333  1
  Mo  Mo88  1  8.78563340  1.57099473  14.16960452  1
  Mo  Mo89  1  14.08729006  2.83823025  12.03002442  1
  Mo  Mo90  1  11.76252726  2.81043795  14.01957178  1
  Mo  Mo91  1  13.36363776  0.74294705  12.75466966  1
  Mo  Mo92  1  9.47498966  4.14403143  13.60968749  1
  Mo  Mo93  1  10.26339137  5.95396646  12.22017181  1
  Mo  Mo94  1  13.55428162  4.98517794  13.77669945  1
  Mo  Mo95  1  11.84583466  7.29909787  13.10964455  1
  Mo  Mo96  1  14.55744561  7.18196112  14.33274403  1
  Mo  Mo97  1  10.18564442  9.23307055  2.54434083  1
  Mo  Mo98  1  10.13758628  10.42901322  0.43954331  1
  Mo  Mo99  1  7.93581856  7.74992094  0.00572775  1
  Mo  Mo100  1  12.91244731  9.20903156  1.89767092  1
  Mo  Mo101  1  7.77060381  11.75627176  3.66161312  1
  Mo  Mo102  1  8.96820468  14.49211038  1.52832824  1
  Mo  Mo103  1  7.60757353  12.10032434  1.09954836  1
  Mo  Mo104  1  13.45002326  12.73143494  3.63716701  1
  Mo  Mo105  1  12.92793712  11.38650212  0.55567918  1
  Mo  Mo106  1  12.04452130  13.68058317  2.00382579  1
  Mo  Mo107  1  9.18380103  9.22281352  7.10263540  1
  Mo  Mo108  1  8.42410513  9.33786510  4.47172042  1
  Mo  Mo109  1  13.26295398  10.46892927  5.98719012  1
  Mo  Mo110  1  11.59114638  8.21355289  6.77085552  1
  Mo  Mo111  1  14.33919812  8.73528158  3.95105418  1
  Mo  Mo112  1  8.30677972  13.59370121  5.34237700  1
  Mo  Mo113  1  10.18296349  12.69886661  3.88003934  1
  Mo  Mo114  1  11.38153744  11.23776019  6.27897452  1
  Mo  Mo115  1  13.05582737  14.31119730  6.98060348  1
  Mo  Mo116  1  9.15045822  9.55511966  10.23807148  1
  Mo  Mo117  1  12.31172058  7.35657898  8.74559819  1
  Mo  Mo118  1  12.95117184  10.19378650  9.91969624  1
  Mo  Mo119  1  9.80506170  12.83807635  9.01116905  1
  Mo  Mo120  1  13.37555301  12.63333279  9.36308569  1
  Mo  Mo121  1  10.63584194  9.11194220  11.67564530  1
  Mo  Mo122  1  7.82613876  9.13749046  11.85526756  1
  Mo  Mo123  1  12.23754820  9.48580274  13.40712839  1
  Mo  Mo124  1  7.92146069  13.42569631  11.67256720  1
  Mo  Mo125  1  13.92901595  12.44656139  12.54247908  1
  Mo  Mo126  1  11.30269826  14.46401027  14.36650388  1
  Mo  Mo127  1  11.32811744  11.84990570  12.34816136  1
