# generated using pymatgen
data_Mo
_symmetry_space_group_name_H-M   'P 1'
_cell_length_a   14.69546382
_cell_length_b   14.69546382
_cell_length_c   14.69546382
_cell_angle_alpha   90.00000000
_cell_angle_beta   90.00000000
_cell_angle_gamma   90.00000000
_symmetry_Int_Tables_number   1
_chemical_formula_structural   Mo
_chemical_formula_sum   Mo128
_cell_volume   3173.58323820
_cell_formula_units_Z   128
loop_
 _symmetry_equiv_pos_site_id
 _symmetry_equiv_pos_as_xyz
  1  'x, y, z'
loop_
 _atom_site_type_symbol
 _atom_site_label
 _atom_site_symmetry_multiplicity
 _atom_site_fract_x
 _atom_site_fract_y
 _atom_site_fract_z
 _atom_site_occupancy
  Mo  Mo0  1  0.49656270  1.69552886  3.59591049  1
  Mo  Mo1  1  3.35750638  2.36105464  0.51040027  1
  Mo  Mo2  1  1.50320694  0.88960380  0.31744088  1
  Mo  Mo3  1  6.90379982  3.22432377  3.02449525  1
  Mo  Mo4  1  5.71934544  0.77299629  0.69717167  1
  Mo  Mo5  1  0.58552189  3.88174719  1.62507999  1
  Mo  Mo6  1  2.29597756  5.72547186  1.23172810  1
  Mo  Mo7  1  7.22653405  6.81392912  2.61459111  1
  Mo  Mo8  1  4.63528689  4.37726235  0.91979702  1
  Mo  Mo9  1  3.30591339  2.87011345  4.11787748  1
  Mo  Mo10  1  0.30465384  0.63710793  7.26028397  1
  Mo  Mo11  1  6.41249472  0.86548438  5.39291748  1
  Mo  Mo12  1  4.46993313  0.38281584  4.97112788  1
  Mo  Mo13  1  5.30316593  3.45718730  6.21255698  1
  Mo  Mo14  1  4.64118493  0.08200575  7.25206245  1
  Mo  Mo15  1  2.54244432  5.08252546  5.13757387  1
  Mo  Mo16  1  4.92347685  7.18723361  4.37660701  1
  Mo  Mo17  1  5.16053057  4.77425831  3.92219943  1
  Mo  Mo18  1  6.81739447  5.51675655  7.22574963  1
  Mo  Mo19  1  0.59910725  0.21365516  10.01664659  1
  Mo  Mo20  1  1.68302778  2.87757040  10.10015257  1
  Mo  Mo21  1  1.67570984  3.01453610  7.68212322  1
  Mo  Mo22  1  5.60071928  2.21986896  8.86901030  1
  Mo  Mo23  1  3.96214528  0.99733545  10.06391038  1
  Mo  Mo24  1  3.65935915  3.89633343  9.25297894  1
  Mo  Mo25  1  0.81843606  5.96684485  8.84281663  1
  Mo  Mo26  1  3.92210014  5.44509631  7.45582300  1
  Mo  Mo27  1  2.17443218  0.40152674  11.91444659  1
  Mo  Mo28  1  3.60388377  2.93684873  11.68934783  1
  Mo  Mo29  1  6.15406307  0.26109371  11.24222841  1
  Mo  Mo30  1  6.75602105  2.29023839  14.06614051  1
  Mo  Mo31  1  4.34830831  0.27096549  13.58843864  1
  Mo  Mo32  1  1.91736085  3.83756151  12.97539950  1
  Mo  Mo33  1  2.48322558  5.46594798  11.14194180  1
  Mo  Mo34  1  0.42447847  5.95267564  14.02900468  1
  Mo  Mo35  1  0.74945575  7.33885506  12.27567697  1
  Mo  Mo36  1  4.41483507  6.06427180  12.92724207  1
  Mo  Mo37  1  6.17586796  4.74232547  11.43783695  1
  Mo  Mo38  1  2.58852652  9.93592083  1.59161803  1
  Mo  Mo39  1  4.20186007  8.70332887  2.59854525  1
  Mo  Mo40  1  6.57482995  10.69075134  3.29464355  1
  Mo  Mo41  1  4.69937102  10.91565151  0.25907706  1
  Mo  Mo42  1  6.78040757  8.60746083  0.53744687  1
  Mo  Mo43  1  2.13587644  13.57513329  2.61296269  1
  Mo  Mo44  1  1.97213124  7.69806978  5.79729097  1
  Mo  Mo45  1  0.99525029  9.92227788  4.13555175  1
  Mo  Mo46  1  5.30042542  9.03544635  6.77183853  1
  Mo  Mo47  1  1.40493599  13.43234899  6.24710125  1
  Mo  Mo48  1  4.30223604  11.81296845  4.93595806  1
  Mo  Mo49  1  1.02893070  10.43288567  9.36941070  1
  Mo  Mo50  1  1.58981088  7.76677108  10.09459212  1
  Mo  Mo51  1  2.93722604  9.12345034  7.75813253  1
  Mo  Mo52  1  4.64220766  7.72583229  9.52011864  1
  Mo  Mo53  1  4.00698630  10.28454092  10.18624018  1
  Mo  Mo54  1  6.60052715  10.47319890  9.42560099  1
  Mo  Mo55  1  1.79093022  12.75000286  10.46952504  1
  Mo  Mo56  1  5.69276452  13.05413938  9.00980873  1
  Mo  Mo57  1  4.13586949  11.92129785  7.47569167  1
  Mo  Mo58  1  3.64922127  9.95707038  13.08104797  1
  Mo  Mo59  1  0.72512681  8.70217706  14.61712111  1
  Mo  Mo60  1  5.98800433  7.89931820  13.24776205  1
  Mo  Mo61  1  6.66213888  10.36179140  11.97561149  1
  Mo  Mo62  1  3.94926689  7.78211195  11.73174623  1
  Mo  Mo63  1  0.06903244  11.41797821  12.97718678  1
  Mo  Mo64  1  1.61077178  13.08640983  14.07716211  1
  Mo  Mo65  1  3.83509902  12.29444348  11.61428181  1
  Mo  Mo66  1  6.70403088  13.79050127  13.72149217  1
  Mo  Mo67  1  8.90520284  2.08140393  1.01992477  1
  Mo  Mo68  1  11.17957410  0.05608663  1.76670256  1
  Mo  Mo69  1  13.72864131  0.15858689  1.66536344  1
  Mo  Mo70  1  13.86546800  2.38619580  0.07067585  1
  Mo  Mo71  1  8.59166321  4.68128965  1.98930905  1
  Mo  Mo72  1  9.68559155  7.13692151  2.99983070  1
  Mo  Mo73  1  10.63653700  4.14720883  1.23473670  1
  Mo  Mo74  1  12.51408109  6.26426912  0.42723089  1
  Mo  Mo75  1  13.93547004  5.96458095  2.53416323  1
  Mo  Mo76  1  10.47429113  3.29397829  5.96575262  1
  Mo  Mo77  1  8.67965726  1.66543294  5.85263727  1
  Mo  Mo78  1  13.15899350  2.88853243  3.70851945  1
  Mo  Mo79  1  13.15968856  0.57786138  4.81178139  1
  Mo  Mo80  1  11.05178314  1.65340848  4.06565894  1
  Mo  Mo81  1  9.12675682  4.53807838  4.43174478  1
  Mo  Mo82  1  7.95316516  7.21388404  4.68754515  1
  Mo  Mo83  1  14.40979592  6.69183761  4.66608779  1
  Mo  Mo84  1  11.89289986  6.06659528  5.11043691  1
  Mo  Mo85  1  14.65803011  4.48225548  6.29996520  1
  Mo  Mo86  1  9.07232402  2.76470328  9.59574070  1
  Mo  Mo87  1  7.72703375  0.72342591  9.53496304  1
  Mo  Mo88  1  10.55571194  0.15045077  10.30906646  1
  Mo  Mo89  1  13.01035087  3.35411054  10.71011361  1
  Mo  Mo90  1  12.71256914  1.18224013  7.56594962  1
  Mo  Mo91  1  8.83810018  5.24013431  8.52822448  1
  Mo  Mo92  1  12.97530020  4.07155698  8.54365471  1
  Mo  Mo93  1  11.41142483  5.77070013  7.83330777  1
  Mo  Mo94  1  8.59525764  0.12767181  12.21451207  1
  Mo  Mo95  1  7.81251567  3.03093941  12.05693301  1
  Mo  Mo96  1  10.70157435  1.96887441  14.16176032  1
  Mo  Mo97  1  13.95225067  0.84669305  12.26346385  1
  Mo  Mo98  1  9.64235908  6.70716856  13.50513125  1
  Mo  Mo99  1  10.33537928  4.86186512  11.53673345  1
  Mo  Mo100  1  7.81733141  7.12677370  11.45273100  1
  Mo  Mo101  1  7.51104022  5.68130603  14.24725217  1
  Mo  Mo102  1  12.98771191  5.73722823  13.03507500  1
  Mo  Mo103  1  8.81921452  10.15823937  0.19281739  1
  Mo  Mo104  1  14.42965465  8.24511835  2.77388795  1
  Mo  Mo105  1  12.14937542  8.94303373  2.21196519  1
  Mo  Mo106  1  10.72957517  11.24917897  3.20329337  1
  Mo  Mo107  1  7.35559597  12.33177790  1.08276773  1
  Mo  Mo108  1  14.01609650  12.22563296  1.17722580  1
  Mo  Mo109  1  9.16671259  8.41540700  6.03488088  1
  Mo  Mo110  1  8.76757188  9.81961815  3.74142537  1
  Mo  Mo111  1  11.50009408  10.20649609  4.87558751  1
  Mo  Mo112  1  12.96547013  8.18857060  6.33188811  1
  Mo  Mo113  1  7.92993044  13.70838540  3.84803699  1
  Mo  Mo114  1  7.95950010  12.06527368  6.48320175  1
  Mo  Mo115  1  9.13966499  14.26403280  7.08150571  1
  Mo  Mo116  1  13.24905286  12.56839473  3.82787044  1
  Mo  Mo117  1  11.09934481  13.80430309  4.66475725  1
  Mo  Mo118  1  10.29953426  8.14090964  9.20281577  1
  Mo  Mo119  1  7.38977285  7.67815147  8.50818701  1
  Mo  Mo120  1  10.45145359  12.03220888  8.24328142  1
  Mo  Mo121  1  7.76604623  12.29613147  10.71676628  1
  Mo  Mo122  1  12.52897514  11.98524298  7.77694868  1
  Mo  Mo123  1  12.15007048  11.08931615  9.93721165  1
  Mo  Mo124  1  10.28027129  10.92021902  11.76749195  1
  Mo  Mo125  1  12.12048096  9.10157594  14.29253009  1
  Mo  Mo126  1  12.99595329  7.98522709  11.45640487  1
  Mo  Mo127  1  10.74625651  13.43443415  14.01669226  1
