# generated using pymatgen
data_Mo
_symmetry_space_group_name_H-M   'P 1'
_cell_length_a   15.88698791
_cell_length_b   15.88698791
_cell_length_c   15.88698791
_cell_angle_alpha   90.00000000
_cell_angle_beta   90.00000000
_cell_angle_gamma   90.00000000
_symmetry_Int_Tables_number   1
_chemical_formula_structural   Mo
_chemical_formula_sum   Mo128
_cell_volume   4009.81831771
_cell_formula_units_Z   128
loop_
 _symmetry_equiv_pos_site_id
 _symmetry_equiv_pos_as_xyz
  1  'x, y, z'
loop_
 _atom_site_type_symbol
 _atom_site_label
 _atom_site_symmetry_multiplicity
 _atom_site_fract_x
 _atom_site_fract_y
 _atom_site_fract_z
 _atom_site_occupancy
  Mo  Mo0  1  2.45332825  2.23097000  2.67962846  1
  Mo  Mo1  1  0.19359387  0.91596627  1.06558000  1
  Mo  Mo2  1  0.25739006  3.89363264  1.17964857  1
  Mo  Mo3  1  6.21532727  0.83274030  2.69244728  1
  Mo  Mo4  1  1.91343875  7.18200084  2.97429237  1
  Mo  Mo5  1  3.82090996  4.99307178  0.57209441  1
  Mo  Mo6  1  7.87332312  4.24561879  1.77086297  1
  Mo  Mo7  1  5.70432230  4.45809733  3.93981413  1
  Mo  Mo8  1  2.13781267  3.24210727  4.90790760  1
  Mo  Mo9  1  6.59590007  1.51504274  4.84460788  1
  Mo  Mo10  1  4.38484838  1.13268266  6.45129869  1
  Mo  Mo11  1  6.24585015  2.16372832  7.02449128  1
  Mo  Mo12  1  3.16690224  6.24058758  6.96181712  1
  Mo  Mo13  1  4.82951524  4.69063318  6.47547670  1
  Mo  Mo14  1  4.16032553  6.59073679  4.19171226  1
  Mo  Mo15  1  7.10652772  7.25497176  6.28874501  1
  Mo  Mo16  1  3.26378308  2.10124281  11.38560848  1
  Mo  Mo17  1  2.78099738  0.04307082  9.20322288  1
  Mo  Mo18  1  4.14803297  3.86412256  10.19785754  1
  Mo  Mo19  1  6.65230880  1.29608033  11.69024147  1
  Mo  Mo20  1  0.44359846  4.48569104  8.74028598  1
  Mo  Mo21  1  5.03595672  7.57050720  11.28760562  1
  Mo  Mo22  1  6.75302238  5.60510806  8.41135582  1
  Mo  Mo23  1  7.43368051  6.68156072  11.39166539  1
  Mo  Mo24  1  1.84170900  2.08268482  15.09204276  1
  Mo  Mo25  1  6.13558452  0.81246652  15.45138656  1
  Mo  Mo26  1  2.22276834  5.40797040  12.00192431  1
  Mo  Mo27  1  0.68049033  5.67923079  15.08807101  1
  Mo  Mo28  1  5.59729365  4.40303898  13.63967418  1
  Mo  Mo29  1  6.57340012  7.72254567  14.11638311  1
  Mo  Mo30  1  6.74617111  5.10259271  15.56944674  1
  Mo  Mo31  1  2.27242510  10.82459922  1.60511204  1
  Mo  Mo32  1  0.55172332  9.05519587  0.24645484  1
  Mo  Mo33  1  5.51190109  10.13063572  3.64651055  1
  Mo  Mo34  1  4.29219745  8.72287980  0.56742661  1
  Mo  Mo35  1  5.98008070  8.08491794  2.45225588  1
  Mo  Mo36  1  2.55676247  14.75871389  1.33661201  1
  Mo  Mo37  1  5.19859976  11.98722885  1.34533000  1
  Mo  Mo38  1  7.40630525  12.88861683  1.62128698  1
  Mo  Mo39  1  1.57333806  9.45482312  4.87158597  1
  Mo  Mo40  1  2.75843785  11.77593191  7.75393240  1
  Mo  Mo41  1  4.89462211  9.68890795  6.44830002  1
  Mo  Mo42  1  7.75728853  11.55798229  4.89552568  1
  Mo  Mo43  1  0.87458861  13.16078079  5.85824736  1
  Mo  Mo44  1  1.54157401  15.48951534  5.75148680  1
  Mo  Mo45  1  4.92575067  13.62547518  5.55212496  1
  Mo  Mo46  1  1.07023687  10.88487048  11.31957818  1
  Mo  Mo47  1  0.36920963  8.16723239  9.62156698  1
  Mo  Mo48  1  5.15431478  11.20787280  11.27648473  1
  Mo  Mo49  1  4.03245513  8.96460032  9.95597815  1
  Mo  Mo50  1  7.56117359  9.54111925  9.29192191  1
  Mo  Mo51  1  0.30712328  14.25231615  9.82471191  1
  Mo  Mo52  1  3.27641323  12.74543535  9.70271970  1
  Mo  Mo53  1  6.79824072  14.61622747  8.21424795  1
  Mo  Mo54  1  6.75094714  12.05147186  9.84236633  1
  Mo  Mo55  1  6.23017167  15.04358744  10.90502709  1
  Mo  Mo56  1  2.51693578  8.57150659  13.18004376  1
  Mo  Mo57  1  0.33407158  14.35111336  11.94046153  1
  Mo  Mo58  1  0.68213364  13.53303277  14.74699724  1
  Mo  Mo59  1  3.57832558  11.92526960  14.06753062  1
  Mo  Mo60  1  4.00014497  14.60758892  12.80759319  1
  Mo  Mo61  1  7.55949553  12.58994145  13.94410859  1
  Mo  Mo62  1  4.82888969  15.04587120  15.30026159  1
  Mo  Mo63  1  9.40290245  2.44411380  2.08430331  1
  Mo  Mo64  1  9.42296971  3.54781264  0.12129517  1
  Mo  Mo65  1  14.68275423  1.38719221  3.34870896  1
  Mo  Mo66  1  9.47969618  7.61367016  2.94669866  1
  Mo  Mo67  1  11.51886059  4.08264808  3.17181728  1
  Mo  Mo68  1  12.64991483  6.62414912  0.89639748  1
  Mo  Mo69  1  14.39837715  5.84597466  2.19905701  1
  Mo  Mo70  1  8.73702914  2.96516728  5.50002557  1
  Mo  Mo71  1  12.09128862  1.41383270  5.54790498  1
  Mo  Mo72  1  10.63316101  4.57238434  6.98100065  1
  Mo  Mo73  1  8.33027261  5.47032683  4.73513661  1
  Mo  Mo74  1  15.75462945  4.53555632  4.65326897  1
  Mo  Mo75  1  12.55568514  7.72068888  5.91359365  1
  Mo  Mo76  1  12.96547013  5.39369197  6.31410462  1
  Mo  Mo77  1  12.15930479  6.78306864  4.07912316  1
  Mo  Mo78  1  15.59288005  7.52469310  5.55705986  1
  Mo  Mo79  1  9.64368962  0.64743150  8.28115203  1
  Mo  Mo80  1  10.56206674  2.81251319  11.58330218  1
  Mo  Mo81  1  12.38291414  3.37388984  9.30635922  1
  Mo  Mo82  1  15.33054616  2.15440464  8.21867645  1
  Mo  Mo83  1  9.17563909  6.02169468  8.31298558  1
  Mo  Mo84  1  10.15049446  6.54369145  10.56236462  1
  Mo  Mo85  1  13.75028733  5.56760484  11.65290705  1
  Mo  Mo86  1  12.43464615  6.82074066  8.42607114  1
  Mo  Mo87  1  14.81918374  6.02661964  8.29216369  1
  Mo  Mo88  1  8.69607050  3.10598557  12.95315771  1
  Mo  Mo89  1  12.63432573  2.82532207  15.06880804  1
  Mo  Mo90  1  15.43957062  1.83604926  12.10151587  1
  Mo  Mo91  1  12.08165713  1.72157359  13.21380361  1
  Mo  Mo92  1  14.09632579  1.01870345  15.39439199  1
  Mo  Mo93  1  11.00531370  5.72139089  13.25679777  1
  Mo  Mo94  1  9.69316765  6.70580823  14.90695935  1
  Mo  Mo95  1  13.42142668  7.19187063  13.99613847  1
  Mo  Mo96  1  14.73518129  4.31027883  13.47981136  1
  Mo  Mo97  1  13.99713141  5.32548715  15.27782122  1
  Mo  Mo98  1  11.76957712  10.67297777  2.76795019  1
  Mo  Mo99  1  8.19565024  10.01376707  0.28072903  1
  Mo  Mo100  1  15.02928915  9.11670830  2.84493257  1
  Mo  Mo101  1  14.15044084  8.31550764  0.44577101  1
  Mo  Mo102  1  11.40864461  14.68454152  2.44250524  1
  Mo  Mo103  1  8.32822716  15.47998314  1.24227309  1
  Mo  Mo104  1  15.56706369  12.26912359  2.64820202  1
  Mo  Mo105  1  13.53422430  14.02453646  2.13273876  1
  Mo  Mo106  1  11.44210658  11.35711119  4.72228801  1
  Mo  Mo107  1  9.15645555  8.62134208  5.45860025  1
  Mo  Mo108  1  10.55452042  10.01654729  7.61984623  1
  Mo  Mo109  1  13.78553659  11.05913087  6.40379659  1
  Mo  Mo110  1  9.37698681  12.60056588  7.17042320  1
  Mo  Mo111  1  8.43201884  15.51940273  4.95763387  1
  Mo  Mo112  1  12.06517438  14.74630218  5.40680867  1
  Mo  Mo113  1  11.55162750  8.88988183  11.09398295  1
  Mo  Mo114  1  14.10476575  9.16842044  8.93973718  1
  Mo  Mo115  1  15.22718145  11.83759328  8.19927446  1
  Mo  Mo116  1  9.82260689  12.53791157  11.07630868  1
  Mo  Mo117  1  13.33692777  15.55524775  9.12393688  1
  Mo  Mo118  1  13.79864335  12.35967942  11.26367584  1
  Mo  Mo119  1  12.76678349  15.51066489  11.41470152  1
  Mo  Mo120  1  8.72080456  9.96640399  13.37148197  1
  Mo  Mo121  1  10.99319987  11.59333084  14.37256079  1
  Mo  Mo122  1  13.13834042  10.38730987  12.52579774  1
  Mo  Mo123  1  13.35152394  11.44240446  14.97676280  1
  Mo  Mo124  1  14.72505334  8.80659429  12.92138374  1
  Mo  Mo125  1  10.50616440  14.48694710  11.92318443  1
  Mo  Mo126  1  9.96739692  15.52595611  15.20057074  1
  Mo  Mo127  1  13.26315257  15.15439918  14.65822869  1
