# generated using pymatgen
data_Mo
_symmetry_space_group_name_H-M   'P 1'
_cell_length_a   15.88698791
_cell_length_b   15.88698791
_cell_length_c   15.88698791
_cell_angle_alpha   90.00000000
_cell_angle_beta   90.00000000
_cell_angle_gamma   90.00000000
_symmetry_Int_Tables_number   1
_chemical_formula_structural   Mo
_chemical_formula_sum   Mo128
_cell_volume   4009.81831771
_cell_formula_units_Z   128
loop_
 _symmetry_equiv_pos_site_id
 _symmetry_equiv_pos_as_xyz
  1  'x, y, z'
loop_
 _atom_site_type_symbol
 _atom_site_label
 _atom_site_symmetry_multiplicity
 _atom_site_fract_x
 _atom_site_fract_y
 _atom_site_fract_z
 _atom_site_occupancy
  Mo  Mo0  1  2.69085858  2.14028508  3.33097511  1
  Mo  Mo1  1  2.11245307  3.40734187  0.14986593  1
  Mo  Mo2  1  6.38355061  1.57110395  3.25746800  1
  Mo  Mo3  1  4.85881681  1.79285652  1.95723719  1
  Mo  Mo4  1  0.98108009  6.22676590  2.34633932  1
  Mo  Mo5  1  4.30935540  4.75473718  2.51562510  1
  Mo  Mo6  1  7.83957320  6.83777946  1.63291426  1
  Mo  Mo7  1  6.59685329  4.99352854  0.97799305  1
  Mo  Mo8  1  2.33140555  3.70461721  5.33571440  1
  Mo  Mo9  1  2.28593897  1.95170654  7.57638538  1
  Mo  Mo10  1  0.17282263  0.22443349  4.57435036  1
  Mo  Mo11  1  5.39928221  1.71581455  5.86711428  1
  Mo  Mo12  1  6.82628125  3.27231241  5.09741951  1
  Mo  Mo13  1  3.73433580  7.58938293  5.29969065  1
  Mo  Mo14  1  0.91971957  6.86384405  4.57026939  1
  Mo  Mo15  1  2.49289678  7.91017100  7.83018995  1
  Mo  Mo16  1  4.17042369  5.55160863  6.50763792  1
  Mo  Mo17  1  7.00520845  7.17044305  5.28104330  1
  Mo  Mo18  1  0.31113971  2.88577206  9.41768728  1
  Mo  Mo19  1  4.02646772  3.24469884  9.42689181  1
  Mo  Mo20  1  7.81210857  1.08326420  10.09071967  1
  Mo  Mo21  1  6.84939682  3.53569881  8.64145898  1
  Mo  Mo22  1  2.21848878  5.90683175  11.34618889  1
  Mo  Mo23  1  1.15500388  5.68282522  8.02289911  1
  Mo  Mo24  1  6.73110826  6.65844515  9.54652083  1
  Mo  Mo25  1  5.64757597  7.83019987  11.88565142  1
  Mo  Mo26  1  4.37890069  7.20640722  9.17060490  1
  Mo  Mo27  1  3.72415820  0.93567508  14.26403280  1
  Mo  Mo28  1  0.87637193  0.92711596  13.21420078  1
  Mo  Mo29  1  7.85406014  2.16858378  14.16732077  1
  Mo  Mo30  1  1.28312251  4.24725714  14.46688978  1
  Mo  Mo31  1  0.84702767  7.56426163  12.08761475  1
  Mo  Mo32  1  3.26671224  6.92116628  15.19520888  1
  Mo  Mo33  1  5.10427077  4.53229949  12.60731785  1
  Mo  Mo34  1  7.13283061  7.28439248  14.41148391  1
  Mo  Mo35  1  1.01219972  8.92653112  2.23644108  1
  Mo  Mo36  1  3.02192355  11.45759639  2.49187405  1
  Mo  Mo37  1  5.21463569  8.76245825  3.37712681  1
  Mo  Mo38  1  5.07228828  10.61588391  0.86641277  1
  Mo  Mo39  1  2.35594101  15.16750595  0.71151663  1
  Mo  Mo40  1  0.42633030  14.50481997  2.47502392  1
  Mo  Mo41  1  5.82016823  14.14915002  0.55751512  1
  Mo  Mo42  1  6.91928963  12.38996399  3.17392230  1
  Mo  Mo43  1  1.84259272  9.52027751  5.91755547  1
  Mo  Mo44  1  3.84039138  11.59918917  4.60327461  1
  Mo  Mo45  1  7.12069692  10.31849936  6.58725159  1
  Mo  Mo46  1  5.10642544  9.59213634  7.43210175  1
  Mo  Mo47  1  1.46118585  15.75433156  6.75301245  1
  Mo  Mo48  1  3.69512473  14.49757153  4.50591716  1
  Mo  Mo49  1  6.12016421  12.70591647  5.59604255  1
  Mo  Mo50  1  1.14687173  10.03819331  9.81916140  1
  Mo  Mo51  1  3.15015140  10.64954447  10.63604053  1
  Mo  Mo52  1  0.10511824  8.36698148  9.03855425  1
  Mo  Mo53  1  5.41203151  11.53593910  11.32176264  1
  Mo  Mo54  1  1.83945504  14.22322310  11.57347211  1
  Mo  Mo55  1  1.44585491  12.94163965  8.22043394  1
  Mo  Mo56  1  4.41074417  15.27057278  9.23183931  1
  Mo  Mo57  1  7.88542702  13.28857175  8.84029457  1
  Mo  Mo58  1  5.44591052  13.81393458  8.00821357  1
  Mo  Mo59  1  0.49075799  8.19893686  15.82115621  1
  Mo  Mo60  1  3.02161574  10.43794965  13.53908969  1
  Mo  Mo61  1  0.17126074  11.34380584  12.48379652  1
  Mo  Mo62  1  3.33135243  12.45142678  14.36382295  1
  Mo  Mo63  1  7.20469937  15.77260160  14.45070491  1
  Mo  Mo64  1  6.28363139  14.68315140  12.07301858  1
  Mo  Mo65  1  9.67248478  1.74079684  1.17080150  1
  Mo  Mo66  1  12.16297865  2.06300482  0.98013580  1
  Mo  Mo67  1  14.32231819  1.24353412  0.13727053  1
  Mo  Mo68  1  15.62455473  2.36282207  1.93316841  1
  Mo  Mo69  1  9.91929907  5.14577553  3.56565571  1
  Mo  Mo70  1  11.81475574  7.16579611  1.25029602  1
  Mo  Mo71  1  14.72564910  4.61978714  1.84570061  1
  Mo  Mo72  1  9.66955562  2.41878398  6.64504051  1
  Mo  Mo73  1  9.40860191  0.40560572  6.20971718  1
  Mo  Mo74  1  15.15966175  3.88519268  5.88970359  1
  Mo  Mo75  1  13.13397150  1.03044989  5.37904616  1
  Mo  Mo76  1  11.49661880  4.81524674  4.80360952  1
  Mo  Mo77  1  10.03263287  5.97175989  7.02093657  1
  Mo  Mo78  1  13.52131612  7.32171697  4.61949919  1
  Mo  Mo79  1  13.33295602  7.22552126  6.90650061  1
  Mo  Mo80  1  13.23276870  4.30388432  7.27563477  1
  Mo  Mo81  1  10.16985673  0.71525205  11.54149954  1
  Mo  Mo82  1  10.99995184  3.24193847  10.20113423  1
  Mo  Mo83  1  15.05500622  1.20396559  11.10023846  1
  Mo  Mo84  1  12.74920851  0.55930538  8.43389549  1
  Mo  Mo85  1  10.80305249  5.13630291  11.80651436  1
  Mo  Mo86  1  14.69407371  5.01390360  10.90949531  1
  Mo  Mo87  1  13.23048495  1.74361678  12.11640992  1
  Mo  Mo88  1  8.84587487  5.82514285  13.52032318  1
  Mo  Mo89  1  10.56375473  5.02110239  15.63349116  1
  Mo  Mo90  1  8.54870876  4.35924054  12.11968661  1
  Mo  Mo91  1  13.29353643  6.55525916  14.56082160  1
  Mo  Mo92  1  14.91867600  4.24899478  14.49747223  1
  Mo  Mo93  1  10.11782684  8.74995718  3.72774270  1
  Mo  Mo94  1  9.23406349  10.15605491  0.82525058  1
  Mo  Mo95  1  14.92383927  11.50386724  3.83323230  1
  Mo  Mo96  1  14.75504003  9.13783799  1.22723010  1
  Mo  Mo97  1  12.86826162  10.97244750  2.92690943  1
  Mo  Mo98  1  10.99369634  12.75248520  2.39230236  1
  Mo  Mo99  1  8.00929588  15.43768404  3.84915901  1
  Mo  Mo100  1  9.44697892  14.58365914  0.14398179  1
  Mo  Mo101  1  13.09097733  14.12065274  1.14455819  1
  Mo  Mo102  1  10.79173301  9.48157283  5.56341465  1
  Mo  Mo103  1  14.07487836  10.21980144  7.74171928  1
  Mo  Mo104  1  15.12510755  9.16706012  4.38242562  1
  Mo  Mo105  1  11.09716035  14.44772610  7.73735036  1
  Mo  Mo106  1  9.84381602  12.24827192  5.23203194  1
  Mo  Mo107  1  8.97204734  13.95622241  6.37838734  1
  Mo  Mo108  1  13.38300003  13.09673637  5.29319685  1
  Mo  Mo109  1  10.51887399  11.02457668  8.73554967  1
  Mo  Mo110  1  8.30968903  9.26830988  8.67548693  1
  Mo  Mo111  1  13.81363670  11.83928127  10.59632306  1
  Mo  Mo112  1  11.54358471  13.95244925  10.41739586  1
  Mo  Mo113  1  15.11210008  15.05490692  8.83985767  1
  Mo  Mo114  1  13.51257828  13.26652855  8.81801307  1
  Mo  Mo115  1  11.50446300  8.95368794  12.36305541  1
  Mo  Mo116  1  10.33150683  11.45104301  15.71560703  1
  Mo  Mo117  1  8.72135067  9.93870105  12.70710799  1
  Mo  Mo118  1  9.91061087  7.96588468  13.92593784  1
  Mo  Mo119  1  14.01560003  9.06757779  12.18949006  1
  Mo  Mo120  1  13.87331220  8.92406864  14.77191995  1
  Mo  Mo121  1  10.84505371  14.83010604  14.30921143  1
  Mo  Mo122  1  11.85338098  12.28848586  12.32919626  1
  Mo  Mo123  1  8.64543073  12.35977872  12.11700568  1
  Mo  Mo124  1  12.10518973  12.20895162  14.64651204  1
  Mo  Mo125  1  14.58097821  14.68940691  14.54304803  1
  Mo  Mo126  1  13.73430105  15.06026878  12.44854726  1
  Mo  Mo127  1  15.76982138  12.21679582  15.83585167  1
