# generated using pymatgen
data_Mo
_symmetry_space_group_name_H-M   'P 1'
_cell_length_a   12.78902527
_cell_length_b   12.78902527
_cell_length_c   12.78902527
_cell_angle_alpha   90.00000000
_cell_angle_beta   90.00000000
_cell_angle_gamma   90.00000000
_symmetry_Int_Tables_number   1
_chemical_formula_structural   Mo
_chemical_formula_sum   Mo128
_cell_volume   2091.76232486
_cell_formula_units_Z   128
loop_
 _symmetry_equiv_pos_site_id
 _symmetry_equiv_pos_as_xyz
  1  'x, y, z'
loop_
 _atom_site_type_symbol
 _atom_site_label
 _atom_site_symmetry_multiplicity
 _atom_site_fract_x
 _atom_site_fract_y
 _atom_site_fract_z
 _atom_site_occupancy
  Mo  Mo0  1  3.46558754  0.05040723  6.38637055  1
  Mo  Mo1  1  1.23915527  1.43733551  1.64071875  1
  Mo  Mo2  1  5.00628777  4.80123641  4.45474120  1
  Mo  Mo3  1  1.80792930  1.72958659  4.73743029  1
  Mo  Mo4  1  4.94518245  4.58280025  1.71051227  1
  Mo  Mo5  1  1.70711643  4.77609525  1.47242590  1
  Mo  Mo6  1  3.25612754  3.15119398  3.18710850  1
  Mo  Mo7  1  1.66225555  5.22223166  4.77707825  1
  Mo  Mo8  1  4.74984200  1.38461057  4.80602236  1
  Mo  Mo9  1  4.43816908  1.73167175  1.62600342  1
  Mo  Mo10  1  0.04404022  2.90905643  3.69537296  1
  Mo  Mo11  1  6.32148214  2.76138687  2.72071619  1
  Mo  Mo12  1  0.16330930  3.26216459  0.27517455  1
  Mo  Mo13  1  6.15038921  6.30815693  0.10846146  1
  Mo  Mo14  1  3.23450137  3.09018795  6.27327506  1
  Mo  Mo15  1  4.94511294  4.31290019  11.85357956  1
  Mo  Mo16  1  1.36628096  1.57082593  8.04247982  1
  Mo  Mo17  1  4.79737388  1.41806261  11.25374648  1
  Mo  Mo18  1  1.07798178  1.75226526  11.19963142  1
  Mo  Mo19  1  3.14694421  3.17747702  9.33831192  1
  Mo  Mo20  1  1.76532238  4.87643151  7.60752388  1
  Mo  Mo21  1  4.64325024  4.75673298  7.88717458  1
  Mo  Mo22  1  1.64909913  4.58583864  11.57108906  1
  Mo  Mo23  1  0.81581570  3.43245324  9.59654498  1
  Mo  Mo24  1  4.99137386  1.72663756  8.13953939  1
  Mo  Mo25  1  6.20043322  3.41188952  9.77877866  1
  Mo  Mo26  1  6.22900994  3.09173693  6.78624604  1
  Mo  Mo27  1  3.15457990  6.33786559  9.63078144  1
  Mo  Mo28  1  2.68449385  0.02889883  9.38922972  1
  Mo  Mo29  1  0.17236885  6.36740546  12.67126297  1
  Mo  Mo30  1  6.35657252  0.09253883  12.70025673  1
  Mo  Mo31  1  0.26532759  6.05206861  9.55345152  1
  Mo  Mo32  1  0.16346618  3.04166313  6.63358202  1
  Mo  Mo33  1  3.19625345  3.02495200  12.77403193  1
  Mo  Mo34  1  5.10471759  11.20429823  4.97785006  1
  Mo  Mo35  1  1.74893892  8.00415246  1.60997743  1
  Mo  Mo36  1  3.18636380  12.70542000  3.04307310  1
  Mo  Mo37  1  1.68617539  8.07560419  4.99376684  1
  Mo  Mo38  1  4.70096965  8.50213010  4.69620356  1
  Mo  Mo39  1  1.73911878  11.07035106  0.91556116  1
  Mo  Mo40  1  4.70992594  11.44369528  1.05822234  1
  Mo  Mo41  1  1.40690200  11.28313740  4.70378959  1
  Mo  Mo42  1  3.11612346  9.85856113  3.11556741  1
  Mo  Mo43  1  4.93935391  8.12179561  1.53087016  1
  Mo  Mo44  1  3.26432919  6.60274140  3.15192876  1
  Mo  Mo45  1  0.29153219  6.51290048  3.16244396  1
  Mo  Mo46  1  3.51071652  9.78406108  6.21332154  1
  Mo  Mo47  1  3.09775413  6.64390856  0.08103357  1
  Mo  Mo48  1  6.25852995  6.54557803  5.87371731  1
  Mo  Mo49  1  6.38922028  9.75724186  3.25441969  1
  Mo  Mo50  1  0.08928418  9.53781277  3.19452574  1
  Mo  Mo51  1  6.02658985  6.65601246  2.93354225  1
  Mo  Mo52  1  3.23969443  6.66571345  6.22337006  1
  Mo  Mo53  1  0.29317053  6.60442939  6.38781031  1
  Mo  Mo54  1  4.50500366  11.45769568  10.83154977  1
  Mo  Mo55  1  1.80519872  7.53065072  7.81469020  1
  Mo  Mo56  1  4.73197907  11.61587051  8.00951432  1
  Mo  Mo57  1  1.93370459  8.09957368  10.94702832  1
  Mo  Mo58  1  2.96430343  9.65382750  9.25849966  1
  Mo  Mo59  1  1.64298264  11.23646938  7.94243151  1
  Mo  Mo60  1  5.05101957  7.92493597  10.92538229  1
  Mo  Mo61  1  1.38826458  11.28661268  10.80583271  1
  Mo  Mo62  1  6.02724519  9.95568027  9.88382144  1
  Mo  Mo63  1  5.02898631  8.46760569  7.85483464  1
  Mo  Mo64  1  3.15063794  9.71289731  12.33743764  1
  Mo  Mo65  1  3.12637056  12.78733728  12.51219451  1
  Mo  Mo66  1  6.20302478  9.67803530  6.56917021  1
  Mo  Mo67  1  9.26771412  2.64230397  2.89709154  1
  Mo  Mo68  1  7.88422556  1.16478431  1.34447607  1
  Mo  Mo69  1  6.85732045  0.38168290  3.30845530  1
  Mo  Mo70  1  8.12597587  2.10497625  5.18108436  1
  Mo  Mo71  1  11.46176672  4.73421318  4.78069254  1
  Mo  Mo72  1  8.01742803  5.01101415  1.92452986  1
  Mo  Mo73  1  10.91098471  1.84772620  5.52201912  1
  Mo  Mo74  1  7.85686023  4.37812620  4.58085410  1
  Mo  Mo75  1  11.22445484  4.72469091  1.83381516  1
  Mo  Mo76  1  11.50138490  1.47541464  1.41990947  1
  Mo  Mo77  1  6.44827023  3.09222347  0.29610962  1
  Mo  Mo78  1  9.28679836  5.94853510  0.21044599  1
  Mo  Mo79  1  10.23022728  6.32621845  3.19035541  1
  Mo  Mo80  1  9.54833790  3.10482384  0.28606110  1
  Mo  Mo81  1  11.96985246  0.24685500  3.54264936  1
  Mo  Mo82  1  11.25553376  4.65010150  11.53405252  1
  Mo  Mo83  1  8.13517047  2.31810019  8.15396676  1
  Mo  Mo84  1  11.17490730  5.14048317  7.92166921  1
  Mo  Mo85  1  8.35653578  1.39587048  11.43138286  1
  Mo  Mo86  1  9.91970617  3.12089948  9.70298780  1
  Mo  Mo87  1  7.58392177  5.13472414  7.61262757  1
  Mo  Mo88  1  11.16398499  1.62564597  11.33963550  1
  Mo  Mo89  1  8.00450992  4.37353883  11.25096625  1
  Mo  Mo90  1  9.36924190  3.60024962  6.65084919  1
  Mo  Mo91  1  11.28740703  1.70705685  8.16790759  1
  Mo  Mo92  1  6.71262971  0.03412396  9.14416300  1
  Mo  Mo93  1  9.75479924  5.89068660  9.74692525  1
  Mo  Mo94  1  12.50673335  0.01818186  9.62023645  1
  Mo  Mo95  1  9.73480149  0.11512506  9.64034342  1
  Mo  Mo96  1  6.71373187  0.29315762  6.54133819  1
  Mo  Mo97  1  11.65836820  11.46275966  1.91033086  1
  Mo  Mo98  1  8.07840427  8.04078190  2.06399775  1
  Mo  Mo99  1  11.31093963  10.92528300  4.93219483  1
  Mo  Mo100  1  8.21019677  7.95851709  4.65827337  1
  Mo  Mo101  1  9.73276597  9.91235844  3.19376118  1
  Mo  Mo102  1  8.13233067  11.14462273  1.37175204  1
  Mo  Mo103  1  9.40910831  12.70442706  3.37986731  1
  Mo  Mo104  1  8.03926271  11.00173913  4.96667953  1
  Mo  Mo105  1  11.12049437  7.82621820  5.01529371  1
  Mo  Mo106  1  11.67504954  7.89167259  1.36091910  1
  Mo  Mo107  1  6.59296097  9.89432671  0.18937786  1
  Mo  Mo108  1  9.83478029  9.53650209  0.12862403  1
  Mo  Mo109  1  12.55558584  12.46185261  6.34733821  1
  Mo  Mo110  1  12.35540979  9.83568386  0.26307363  1
  Mo  Mo111  1  12.68069587  9.43296858  6.17015858  1
  Mo  Mo112  1  10.39972158  10.50298700  10.48988024  1
  Mo  Mo113  1  8.01639537  8.00716106  8.06056120  1
  Mo  Mo114  1  9.31620915  8.51378718  9.93631800  1
  Mo  Mo115  1  7.58793324  7.97498991  11.76590325  1
  Mo  Mo116  1  10.89271468  11.31769160  7.77473443  1
  Mo  Mo117  1  7.93558025  10.90979319  8.21534018  1
  Mo  Mo118  1  6.45390018  6.69688173  9.45709694  1
  Mo  Mo119  1  7.80756092  11.24332064  11.02437809  1
  Mo  Mo120  1  11.55986887  7.74165970  11.05505983  1
  Mo  Mo121  1  10.95129794  7.88630080  7.72904941  1
  Mo  Mo122  1  12.75248520  12.34716842  12.44427763  1
  Mo  Mo123  1  9.73576464  12.58100502  12.60056588  1
  Mo  Mo124  1  9.18917282  12.71515078  6.73982625  1
  Mo  Mo125  1  12.61625428  9.48920852  9.50088545  1
  Mo  Mo126  1  9.36857663  9.48520698  6.57114615  1
  Mo  Mo127  1  9.30300309  6.42158009  6.52216458  1
