# generated using pymatgen
data_Mo
_symmetry_space_group_name_H-M   'P 1'
_cell_length_a   12.78902527
_cell_length_b   12.78902527
_cell_length_c   12.78902527
_cell_angle_alpha   90.00000000
_cell_angle_beta   90.00000000
_cell_angle_gamma   90.00000000
_symmetry_Int_Tables_number   1
_chemical_formula_structural   Mo
_chemical_formula_sum   Mo128
_cell_volume   2091.76232486
_cell_formula_units_Z   128
loop_
 _symmetry_equiv_pos_site_id
 _symmetry_equiv_pos_as_xyz
  1  'x, y, z'
loop_
 _atom_site_type_symbol
 _atom_site_label
 _atom_site_symmetry_multiplicity
 _atom_site_fract_x
 _atom_site_fract_y
 _atom_site_fract_z
 _atom_site_occupancy
  Mo  Mo0  1  0.95822169  4.33319581  0.71210246  1
  Mo  Mo1  1  6.09674084  3.43453841  0.31344630  1
  Mo  Mo2  1  2.75744492  0.66741534  3.87450868  1
  Mo  Mo3  1  2.74220334  3.71828002  3.46971816  1
  Mo  Mo4  1  4.36072995  1.63759100  1.97806901  1
  Mo  Mo5  1  4.74421205  0.10617969  4.69881498  1
  Mo  Mo6  1  0.39835431  4.05228408  3.44419969  1
  Mo  Mo7  1  4.85353438  5.49504103  4.43918188  1
  Mo  Mo8  1  3.63501234  3.94089643  0.50152937  1
  Mo  Mo9  1  1.14151980  1.73709319  2.00301158  1
  Mo  Mo10  1  5.29297840  2.72972212  4.79235955  1
  Mo  Mo11  1  5.61144300  4.59330552  2.56044627  1
  Mo  Mo12  1  2.25410542  5.69223826  4.89375825  1
  Mo  Mo13  1  2.43178152  2.25059043  6.13329084  1
  Mo  Mo14  1  0.76978712  0.22095523  5.98291057  1
  Mo  Mo15  1  0.69307481  4.02126473  6.26040660  1
  Mo  Mo16  1  4.57396311  1.30305075  7.22716953  1
  Mo  Mo17  1  2.63306966  4.95471464  8.18895785  1
  Mo  Mo18  1  5.10935461  6.06576121  8.76429519  1
  Mo  Mo19  1  4.33932223  0.04649823  9.98993659  1
  Mo  Mo20  1  0.41820013  4.47238569  9.22964492  1
  Mo  Mo21  1  5.13560785  5.18032973  11.12049437  1
  Mo  Mo22  1  1.94360417  0.39200944  8.66607388  1
  Mo  Mo23  1  2.31835836  5.09281228  11.39345268  1
  Mo  Mo24  1  5.21121999  3.72573697  7.10520711  1
  Mo  Mo25  1  2.92260008  2.58299586  9.19621274  1
  Mo  Mo26  1  1.24346461  2.96290339  11.36823208  1
  Mo  Mo27  1  5.31350240  3.02460448  9.69659329  1
  Mo  Mo28  1  4.81636876  2.01174942  11.81604655  1
  Mo  Mo29  1  2.54047831  1.37777917  12.68000082  1
  Mo  Mo30  1  2.60513835  8.90936325  2.03344509  1
  Mo  Mo31  1  3.74531768  8.47643290  4.36057108  1
  Mo  Mo32  1  2.22286763  10.74466781  4.94723782  1
  Mo  Mo33  1  1.37121586  8.33449259  4.62028361  1
  Mo  Mo34  1  3.27827996  11.22544778  2.95333148  1
  Mo  Mo35  1  0.25151286  12.36732504  2.97541439  1
  Mo  Mo36  1  5.49468357  9.83824564  5.85128687  1
  Mo  Mo37  1  5.81600783  9.37246894  0.51749083  1
  Mo  Mo38  1  4.69869583  12.01294591  0.24156562  1
  Mo  Mo39  1  6.02570614  7.74612792  5.23561644  1
  Mo  Mo40  1  1.54534717  11.65082188  0.73205354  1
  Mo  Mo41  1  5.75727562  10.03710108  3.36188523  1
  Mo  Mo42  1  2.80660521  6.51015998  2.26237658  1
  Mo  Mo43  1  5.36988135  7.46309130  2.24516899  1
  Mo  Mo44  1  0.40318097  6.72904295  2.55575960  1
  Mo  Mo45  1  4.45752142  6.60733870  0.38173453  1
  Mo  Mo46  1  3.35486517  10.02607949  9.18699829  1
  Mo  Mo47  1  5.09268320  8.60713316  8.16163223  1
  Mo  Mo48  1  0.81945977  10.89996311  7.10202971  1
  Mo  Mo49  1  0.86452421  6.54967886  7.12724038  1
  Mo  Mo50  1  4.02133424  7.64075747  10.84416007  1
  Mo  Mo51  1  5.67620234  9.79802177  10.73950454  1
  Mo  Mo52  1  0.90527532  6.89312575  10.45473028  1
  Mo  Mo53  1  0.58134163  8.73929304  12.24003054  1
  Mo  Mo54  1  2.45324881  9.30116616  6.73349131  1
  Mo  Mo55  1  3.25173876  10.53307299  11.71526348  1
  Mo  Mo56  1  2.32479259  7.94246130  8.75266790  1
  Mo  Mo57  1  1.17211218  11.30647142  10.05040644  1
  Mo  Mo58  1  5.94479173  11.32841532  8.49999528  1
  Mo  Mo59  1  3.35710920  11.66919121  7.16614364  1
  Mo  Mo60  1  4.02236689  6.89216260  6.80638280  1
  Mo  Mo61  1  2.05465422  7.11054911  12.75933646  1
  Mo  Mo62  1  6.87533232  2.31461499  2.50160483  1
  Mo  Mo63  1  8.60660690  2.04343403  0.64673048  1
  Mo  Mo64  1  10.37976355  2.75132843  5.74604551  1
  Mo  Mo65  1  10.91306988  0.02176944  4.95958003  1
  Mo  Mo66  1  12.44040518  1.74207773  4.31431016  1
  Mo  Mo67  1  7.24439698  6.07731899  3.88165783  1
  Mo  Mo68  1  7.15187514  6.11216114  1.30175000  1
  Mo  Mo69  1  10.60843689  2.84940079  2.85756273  1
  Mo  Mo70  1  8.05959805  0.38125594  4.29165134  1
  Mo  Mo71  1  9.65446298  5.89241431  4.05804311  1
  Mo  Mo72  1  8.37761583  3.08038766  4.23831078  1
  Mo  Mo73  1  11.23924960  5.21229236  2.08798710  1
  Mo  Mo74  1  7.30715059  4.61024502  6.03280564  1
  Mo  Mo75  1  9.06617775  4.54015362  1.33288850  1
  Mo  Mo76  1  6.90385940  0.26855364  0.21421022  1
  Mo  Mo77  1  12.15026906  5.75111941  5.17372670  1
  Mo  Mo78  1  11.30667000  0.44927409  1.19405608  1
  Mo  Mo79  1  11.60872136  2.56120090  0.29612650  1
  Mo  Mo80  1  7.20734058  1.95080296  6.07253304  1
  Mo  Mo81  1  9.53607513  1.75082550  8.54999958  1
  Mo  Mo82  1  9.58638724  3.71445721  10.60367079  1
  Mo  Mo83  1  7.39518436  4.42707798  11.28393175  1
  Mo  Mo84  1  11.70751857  4.63049100  11.58697605  1
  Mo  Mo85  1  7.49096304  4.00048257  8.49076097  1
  Mo  Mo86  1  12.58160078  1.95956067  7.55153218  1
  Mo  Mo87  1  9.00679020  6.18994781  12.16635464  1
  Mo  Mo88  1  11.90292852  2.53843286  9.87407080  1
  Mo  Mo89  1  9.91213006  0.72560739  11.69848284  1
  Mo  Mo90  1  12.62658082  0.90422579  11.40437498  1
  Mo  Mo91  1  10.80265531  4.07792170  8.04810977  1
  Mo  Mo92  1  7.49422980  1.98229892  11.07958537  1
  Mo  Mo93  1  8.72917501  5.93475313  9.33352596  1
  Mo  Mo94  1  6.92169254  0.88388151  8.42198024  1
  Mo  Mo95  1  11.82349358  0.04700632  9.13047040  1
  Mo  Mo96  1  10.54111577  7.32121057  1.72348003  1
  Mo  Mo97  1  12.20855445  10.56991094  4.32877724  1
  Mo  Mo98  1  9.07145024  10.70703550  4.50946194  1
  Mo  Mo99  1  12.70700870  9.78034750  1.99156302  1
  Mo  Mo100  1  7.84986995  8.78887037  3.44347484  1
  Mo  Mo101  1  10.38016073  8.58185299  4.03563253  1
  Mo  Mo102  1  10.31115162  10.53654827  1.83176971  1
  Mo  Mo103  1  8.10749732  8.45272157  0.65842430  1
  Mo  Mo104  1  11.74515087  8.34180060  5.84920170  1
  Mo  Mo105  1  7.77047473  10.74655439  1.51127951  1
  Mo  Mo106  1  9.07580923  12.71763312  2.30521188  1
  Mo  Mo107  1  6.50651590  12.26247092  2.53805554  1
  Mo  Mo108  1  6.79301787  12.00490312  6.26549043  1
  Mo  Mo109  1  12.69479557  8.55448765  8.16840406  1
  Mo  Mo110  1  9.89950984  8.39266875  7.98264545  1
  Mo  Mo111  1  7.25024538  8.33251664  9.14149200  1
  Mo  Mo112  1  10.62491964  10.82221617  7.32521210  1
  Mo  Mo113  1  7.77170597  9.75491839  7.19882119  1
  Mo  Mo114  1  12.11313323  6.72340307  12.61019736  1
  Mo  Mo115  1  11.34738041  10.47568124  9.56111700  1
  Mo  Mo116  1  8.86409526  12.25720835  9.18785221  1
  Mo  Mo117  1  11.44915643  7.82519547  10.46187942  1
  Mo  Mo118  1  6.50426193  12.03389688  10.84922405  1
  Mo  Mo119  1  9.17793278  8.90356450  11.17798540  1
  Mo  Mo120  1  9.21556508  10.96758211  11.96985246  1
  Mo  Mo121  1  11.93261733  11.35482744  12.29583359  1
  Mo  Mo122  1  11.36217517  6.38924014  8.67656923  1
  Mo  Mo123  1  6.83867310  7.22570991  11.09199708  1
  Mo  Mo124  1  7.14113156  6.57481009  7.47101494  1
  Mo  Mo125  1  10.06639272  6.48883170  6.44614535  1
  Mo  Mo126  1  9.17553980  12.61019736  6.62783291  1
  Mo  Mo127  1  11.16507722  8.95743131  12.72100910  1
