# generated using pymatgen
data_Mo
_symmetry_space_group_name_H-M   'P 1'
_cell_length_a   12.78902527
_cell_length_b   12.78902527
_cell_length_c   12.78902527
_cell_angle_alpha   90.00000000
_cell_angle_beta   90.00000000
_cell_angle_gamma   90.00000000
_symmetry_Int_Tables_number   1
_chemical_formula_structural   Mo
_chemical_formula_sum   Mo128
_cell_volume   2091.76232486
_cell_formula_units_Z   128
loop_
 _symmetry_equiv_pos_site_id
 _symmetry_equiv_pos_as_xyz
  1  'x, y, z'
loop_
 _atom_site_type_symbol
 _atom_site_label
 _atom_site_symmetry_multiplicity
 _atom_site_fract_x
 _atom_site_fract_y
 _atom_site_fract_z
 _atom_site_occupancy
  Mo  Mo0  1  5.95630979  3.68761813  5.73432885  1
  Mo  Mo1  1  3.99249936  4.50408023  4.79410712  1
  Mo  Mo2  1  1.50968089  3.75655773  3.18456659  1
  Mo  Mo3  1  5.86946754  2.30439767  3.56544719  1
  Mo  Mo4  1  3.86064729  2.70007303  1.62393812  1
  Mo  Mo5  1  3.47744321  2.15140597  4.23758593  1
  Mo  Mo6  1  3.53951168  5.74816046  0.31295380  1
  Mo  Mo7  1  1.69691897  2.45014092  5.64121124  1
  Mo  Mo8  1  2.71190884  0.32496238  1.30147198  1
  Mo  Mo9  1  6.07894741  2.17242644  0.04542100  1
  Mo  Mo10  1  1.01963681  4.89878251  0.32523643  1
  Mo  Mo11  1  3.48040216  0.22833573  6.33588965  1
  Mo  Mo12  1  5.66291684  0.69639916  5.55814216  1
  Mo  Mo13  1  1.02903992  1.92901793  0.23859178  1
  Mo  Mo14  1  4.89118655  4.81180125  2.20143013  1
  Mo  Mo15  1  1.67840070  4.95242095  5.68739273  1
  Mo  Mo16  1  3.39779975  3.55809946  9.47543648  1
  Mo  Mo17  1  1.85525266  6.19267838  10.62094789  1
  Mo  Mo18  1  5.58401809  3.94679448  8.17080697  1
  Mo  Mo19  1  3.70383279  3.00434857  6.92088826  1
  Mo  Mo20  1  3.14379660  0.97059070  9.20606267  1
  Mo  Mo21  1  2.33806815  3.26791370  11.55788300  1
  Mo  Mo22  1  0.21886610  3.83496994  10.30420107  1
  Mo  Mo23  1  4.06578802  6.38262718  10.08247829  1
  Mo  Mo24  1  5.63275142  1.19291420  7.82686361  1
  Mo  Mo25  1  0.85302401  5.16253630  8.49620227  1
  Mo  Mo26  1  1.32486557  2.51228883  8.20018796  1
  Mo  Mo27  1  5.91455680  1.67420057  10.17988539  1
  Mo  Mo28  1  4.80655855  4.36072002  11.53335746  1
  Mo  Mo29  1  3.59655590  5.64939304  7.11925717  1
  Mo  Mo30  1  3.89872641  1.15486487  12.03439334  1
  Mo  Mo31  1  0.83624636  0.98557412  10.61042276  1
  Mo  Mo32  1  2.89192827  7.93129076  0.71555291  1
  Mo  Mo33  1  0.50187094  10.22029791  1.76341594  1
  Mo  Mo34  1  2.44499751  10.21434029  5.83630346  1
  Mo  Mo35  1  5.48448611  12.98145641  1.50757586  1
  Mo  Mo36  1  3.20295577  9.28033434  3.12029379  1
  Mo  Mo37  1  5.06952791  7.63445232  2.07976559  1
  Mo  Mo38  1  0.92436354  9.16041737  4.01549577  1
  Mo  Mo39  1  0.63555697  11.91166636  -0.05977251  1
  Mo  Mo40  1  4.64725178  10.27997341  5.29990910  1
  Mo  Mo41  1  4.17973744  12.52609562  3.39396702  1
  Mo  Mo42  1  5.31107964  10.24442628  2.33094880  1
  Mo  Mo43  1  3.02101005  11.02576820  1.45003518  1
  Mo  Mo44  1  2.80466899  7.65138190  5.43397542  1
  Mo  Mo45  1  0.74060173  7.49961151  1.72169274  1
  Mo  Mo46  1  1.21783692  12.21202973  3.36131926  1
  Mo  Mo47  1  4.78519055  6.84430305  4.53413642  1
  Mo  Mo48  1  -0.40117325  11.06131534  5.68163370  1
  Mo  Mo49  1  2.89190841  6.22927803  3.22793806  1
  Mo  Mo50  1  2.57440696  8.31910207  10.48849013  1
  Mo  Mo51  1  1.57664454  9.76538394  12.34458678  1
  Mo  Mo52  1  4.97861463  10.52165421  12.62926175  1
  Mo  Mo53  1  5.34235714  9.81480240  9.54808967  1
  Mo  Mo54  1  1.58759663  12.43236239  7.93720867  1
  Mo  Mo55  1  5.25128499  12.09595542  9.77847085  1
  Mo  Mo56  1  3.90345279  11.31540785  7.96753296  1
  Mo  Mo57  1  5.08948594  8.00305030  12.29166326  1
  Mo  Mo58  1  2.67249918  11.48420709  10.50268912  1
  Mo  Mo59  1  1.05958266  9.77514451  7.94326558  1
  Mo  Mo60  1  1.88931039  7.49232336  8.08525554  1
  Mo  Mo61  1  0.15028991  7.10229781  6.38863445  1
  Mo  Mo62  1  5.56213376  6.90853613  8.27097442  1
  Mo  Mo63  1  0.02576164  8.06672734  9.62419827  1
  Mo  Mo64  1  3.95383440  8.53550270  7.41681052  1
  Mo  Mo65  1  0.21220548  7.86940102  12.11462263  1
  Mo  Mo66  1  9.89283730  4.59728720  4.16824916  1
  Mo  Mo67  1  8.49559658  2.94321345  4.27160395  1
  Mo  Mo68  1  11.83957916  3.65059152  2.94319359  1
  Mo  Mo69  1  9.75222753  1.95063416  2.55184743  1
  Mo  Mo70  1  9.31843333  2.77824694  0.24299644  1
  Mo  Mo71  1  7.56655531  5.10606799  3.96699081  1
  Mo  Mo72  1  12.22334921  0.91329428  2.24695628  1
  Mo  Mo73  1  11.90898543  1.74517569  4.36781952  1
  Mo  Mo74  1  10.21910639  2.78653796  6.58590119  1
  Mo  Mo75  1  12.68556126  6.37600429  4.08041398  1
  Mo  Mo76  1  7.39985116  3.76612964  1.57346714  1
  Mo  Mo77  1  9.27195396  4.89127591  1.73998263  1
  Mo  Mo78  1  10.10680524  0.39529606  4.78150675  1
  Mo  Mo79  1  6.62752510  6.44555951  6.31952605  1
  Mo  Mo80  1  10.23320609  5.73094294  6.32176016  1
  Mo  Mo81  1  6.83819649  6.27028632  1.60699862  1
  Mo  Mo82  1  7.72868202  0.24836724  1.91396501  1
  Mo  Mo83  1  11.53713062  3.57110693  0.39939490  1
  Mo  Mo84  1  9.75283322  -0.23655129  7.62157394  1
  Mo  Mo85  1  9.05281282  6.24713103  12.55230915  1
  Mo  Mo86  1  9.04436293  1.95133915  8.94250747  1
  Mo  Mo87  1  7.57417113  5.26094626  9.44740588  1
  Mo  Mo88  1  12.02764137  5.82270022  11.21184455  1
  Mo  Mo89  1  8.39123892  4.51665081  7.28565350  1
  Mo  Mo90  1  10.59195414  4.91748944  8.76567537  1
  Mo  Mo91  1  10.06629342  3.36153770  10.66682157  1
  Mo  Mo92  1  7.25316461  4.51645222  12.03796792  1
  Mo  Mo93  1  12.28749292  3.93922830  6.64304470  1
  Mo  Mo94  1  11.54725858  1.38257505  11.86003365  1
  Mo  Mo95  1  8.26667501  1.32549112  11.14035310  1
  Mo  Mo96  1  11.73154764  1.62569561  8.98805348  1
  Mo  Mo97  1  7.75839069  1.84719001  6.47502988  1
  Mo  Mo98  1  12.05157115  0.97309886  7.02003300  1
  Mo  Mo99  1  6.51159974  8.56771357  4.49728854  1
  Mo  Mo100  1  11.49771103  10.25147613  0.31346119  1
  Mo  Mo101  1  8.97154094  7.58714882  2.75612431  1
  Mo  Mo102  1  10.90592073  9.40350815  2.54297058  1
  Mo  Mo103  1  11.44270234  9.04569346  5.78712330  1
  Mo  Mo104  1  10.25783092  8.09675374  0.18924580  1
  Mo  Mo105  1  10.11594026  12.09029568  2.41151568  1
  Mo  Mo106  1  8.09835237  9.99529845  2.94476243  1
  Mo  Mo107  1  7.41895526  8.03794210  0.30625545  1
  Mo  Mo108  1  7.08423629  11.31967748  4.51804092  1
  Mo  Mo109  1  9.66378666  10.61469239  4.92268250  1
  Mo  Mo110  1  11.32086900  6.11915142  2.15830688  1
  Mo  Mo111  1  9.06391385  8.16194997  5.32065155  1
  Mo  Mo112  1  7.08571576  12.05067751  11.79013091  1
  Mo  Mo113  1  8.64350443  10.30529330  13.01839366  1
  Mo  Mo114  1  10.58947179  11.62143095  10.19289286  1
  Mo  Mo115  1  8.42726267  8.07850357  8.12985825  1
  Mo  Mo116  1  9.53953055  10.02081692  7.79572511  1
  Mo  Mo117  1  10.84376289  7.98059007  7.74222568  1
  Mo  Mo118  1  9.41813410  6.83299350  9.91077967  1
  Mo  Mo119  1  6.49311125  10.00959674  7.55168112  1
  Mo  Mo120  1  7.01275477  7.02929710  10.74834167  1
  Mo  Mo121  1  7.84667270  12.55459291  9.46397799  1
  Mo  Mo122  1  11.78913797  11.15058035  8.11198539  1
  Mo  Mo123  1  10.31393185  9.27120925  9.89599484  1
  Mo  Mo124  1  7.79181294  9.94733960  10.37608969  1
  Mo  Mo125  1  12.78634434  10.32485415  10.58619510  1
  Mo  Mo126  1  9.44174614  12.47595232  12.81146564  1
  Mo  Mo127  1  7.69150647  12.35809072  6.30052124  1
