# generated using pymatgen
data_Mo
_symmetry_space_group_name_H-M   'P 1'
_cell_length_a   13.02733009
_cell_length_b   13.02733009
_cell_length_c   13.02733009
_cell_angle_alpha   90.00000000
_cell_angle_beta   90.00000000
_cell_angle_gamma   90.00000000
_symmetry_Int_Tables_number   1
_chemical_formula_structural   Mo
_chemical_formula_sum   Mo128
_cell_volume   2210.88550621
_cell_formula_units_Z   128
loop_
 _symmetry_equiv_pos_site_id
 _symmetry_equiv_pos_as_xyz
  1  'x, y, z'
loop_
 _atom_site_type_symbol
 _atom_site_label
 _atom_site_symmetry_multiplicity
 _atom_site_fract_x
 _atom_site_fract_y
 _atom_site_fract_z
 _atom_site_occupancy
  Mo  Mo0  1  4.70664925  4.85378262  4.88841625  1
  Mo  Mo1  1  1.58836119  1.18236922  1.78854717  1
  Mo  Mo2  1  4.90100669  1.47545436  4.51924237  1
  Mo  Mo3  1  1.71748269  1.55945680  4.76483534  1
  Mo  Mo4  1  3.38762215  3.06769793  2.86829637  1
  Mo  Mo5  1  1.38939653  4.40061622  2.22566771  1
  Mo  Mo6  1  5.10751767  5.09490738  1.22701165  1
  Mo  Mo7  1  1.97710586  4.91813485  4.85401099  1
  Mo  Mo8  1  3.40254599  6.28529952  3.23862206  1
  Mo  Mo9  1  4.75016967  1.58755691  1.59778416  1
  Mo  Mo10  1  2.76409759  6.55378962  0.34672358  1
  Mo  Mo11  1  2.82647388  2.90485631  0.38908028  1
  Mo  Mo12  1  6.54639224  3.37341323  3.13183172  1
  Mo  Mo13  1  6.28100011  3.29241938  5.99228389  1
  Mo  Mo14  1  0.22771912  3.11906255  6.07858002  1
  Mo  Mo15  1  3.29002640  3.02689816  6.21685639  1
  Mo  Mo16  1  2.98153088  0.16115264  6.43716920  1
  Mo  Mo17  1  0.14499756  0.48218994  9.63963843  1
  Mo  Mo18  1  1.82978383  1.74904815  8.20658248  1
  Mo  Mo19  1  4.55071846  4.90912891  11.26774688  1
  Mo  Mo20  1  2.01274236  1.94277011  11.31888313  1
  Mo  Mo21  1  4.46198964  4.51479401  7.82357699  1
  Mo  Mo22  1  1.78526055  4.65089585  8.30662085  1
  Mo  Mo23  1  3.34946359  3.45967957  9.79046553  1
  Mo  Mo24  1  1.78011714  5.35714197  11.48271769  1
  Mo  Mo25  1  4.97437479  1.72321193  11.68934783  1
  Mo  Mo26  1  5.05991629  1.43790149  8.21444654  1
  Mo  Mo27  1  6.39359913  3.35005935  10.04087424  1
  Mo  Mo28  1  0.27708794  3.39805792  9.89804029  1
  Mo  Mo29  1  3.34270169  0.06071788  9.59984153  1
  Mo  Mo30  1  0.32419087  6.33798475  6.77817346  1
  Mo  Mo31  1  6.12535727  3.65416609  12.76201739  1
  Mo  Mo32  1  4.99706339  12.21153326  1.38531556  1
  Mo  Mo33  1  1.35875450  7.77783239  1.89267645  1
  Mo  Mo34  1  5.07979488  11.76858418  4.84764627  1
  Mo  Mo35  1  1.70031481  7.89790823  4.56022087  1
  Mo  Mo36  1  4.56485788  8.13126822  1.43882492  1
  Mo  Mo37  1  1.70142690  11.26834265  2.14869526  1
  Mo  Mo38  1  3.30996457  9.66480938  3.20626225  1
  Mo  Mo39  1  1.76416064  11.60981359  5.24166343  1
  Mo  Mo40  1  5.05178413  8.48910277  4.88527857  1
  Mo  Mo41  1  6.56734321  10.15972877  2.52837441  1
  Mo  Mo42  1  3.56141587  9.74618055  6.67859184  1
  Mo  Mo43  1  3.29553720  13.01978377  3.17577910  1
  Mo  Mo44  1  3.33596958  6.61809220  6.42699160  1
  Mo  Mo45  1  6.17811200  6.95669356  3.22142440  1
  Mo  Mo46  1  6.76011194  9.80536951  6.37511065  1
  Mo  Mo47  1  3.29650035  9.74678624  0.13123347  1
  Mo  Mo48  1  0.20318067  9.79022722  0.61500913  1
  Mo  Mo49  1  4.76533181  11.47904382  8.24634959  1
  Mo  Mo50  1  2.06605313  8.19947305  7.86662079  1
  Mo  Mo51  1  6.28710667  6.54251979  9.83599167  1
  Mo  Mo52  1  1.74503668  8.24076929  11.39881453  1
  Mo  Mo53  1  4.48143134  11.31937960  11.44329810  1
  Mo  Mo54  1  1.46699453  11.55689006  7.77848773  1
  Mo  Mo55  1  2.98904741  9.84633808  9.60585873  1
  Mo  Mo56  1  1.73930744  11.40953825  11.11970002  1
  Mo  Mo57  1  4.63183147  8.54634557  11.44816349  1
  Mo  Mo58  1  4.96356170  7.97700557  7.96669889  1
  Mo  Mo59  1  0.15998594  6.64235958  10.12338729  1
  Mo  Mo60  1  -0.18499901  12.95554076  6.72105974  1
  Mo  Mo61  1  6.43501453  9.91969624  9.46127721  1
  Mo  Mo62  1  3.04950733  6.63593528  9.42839114  1
  Mo  Mo63  1  3.20378984  12.72408721  12.65557457  1
  Mo  Mo64  1  11.35194792  1.87378086  5.11133055  1
  Mo  Mo65  1  7.95291693  1.75807394  1.68795275  1
  Mo  Mo66  1  11.36862926  5.09984227  1.61585561  1
  Mo  Mo67  1  8.01631594  1.55203957  5.01897750  1
  Mo  Mo68  1  11.24927826  4.63655785  5.57026591  1
  Mo  Mo69  1  8.28138040  4.66566082  1.89308355  1
  Mo  Mo70  1  12.51219451  6.06118377  3.69449918  1
  Mo  Mo71  1  7.88874342  5.04408887  4.79053255  1
  Mo  Mo72  1  12.66391524  2.96896030  2.76159539  1
  Mo  Mo73  1  10.99478857  1.44116825  1.97224047  1
  Mo  Mo74  1  9.73831649  3.41263423  3.42626725  1
  Mo  Mo75  1  9.64255767  3.27118046  0.10717859  1
  Mo  Mo76  1  9.60335652  3.04060069  6.59140206  1
  Mo  Mo77  1  12.89129776  3.10815017  0.15229962  1
  Mo  Mo78  1  12.92267456  0.08658488  3.68814439  1
  Mo  Mo79  1  6.34772546  0.35538497  3.03536791  1
  Mo  Mo80  1  10.03263287  6.33146115  3.09808180  1
  Mo  Mo81  1  11.40983613  4.56510612  11.59174214  1
  Mo  Mo82  1  8.68561488  1.49758692  8.30757407  1
  Mo  Mo83  1  10.30152014  0.09687538  10.04305870  1
  Mo  Mo84  1  8.70870066  1.45292462  11.68756054  1
  Mo  Mo85  1  9.85917675  0.12896163  6.55233000  1
  Mo  Mo86  1  7.98200004  4.46835436  7.95907313  1
  Mo  Mo87  1  10.38035932  3.48573423  9.42426052  1
  Mo  Mo88  1  7.74999044  4.92297045  11.36833138  1
  Mo  Mo89  1  11.57645092  1.60275878  11.62748787  1
  Mo  Mo90  1  11.55728724  1.79211181  8.16467062  1
  Mo  Mo91  1  11.94195093  5.11307812  8.27825265  1
  Mo  Mo92  1  9.42208599  6.19893388  9.73735334  1
  Mo  Mo93  1  6.68148128  0.08754445  6.79186606  1
  Mo  Mo94  1  12.87322631  6.25395251  13.03001102  1
  Mo  Mo95  1  11.18453879  11.27906636  5.23574553  1
  Mo  Mo96  1  8.34652698  8.41278565  1.43243041  1
  Mo  Mo97  1  6.65262654  6.61737729  6.43881747  1
  Mo  Mo98  1  7.81865202  8.44526461  4.72436324  1
  Mo  Mo99  1  11.19109217  7.92228483  5.14057254  1
  Mo  Mo100  1  8.40961818  11.52620832  1.85574913  1
  Mo  Mo101  1  11.40109829  11.48172475  1.85550089  1
  Mo  Mo102  1  8.11002931  11.48549791  4.67158865  1
  Mo  Mo103  1  9.68582985  9.67267344  3.05528622  1
  Mo  Mo104  1  11.32563510  8.22003677  1.70839732  1
  Mo  Mo105  1  12.96765459  9.77679279  3.26093335  1
  Mo  Mo106  1  10.08635075  9.83094756  -0.06343535  1
  Mo  Mo107  1  9.91718411  12.83102650  0.32712400  1
  Mo  Mo108  1  9.74828557  12.97738537  3.53954147  1
  Mo  Mo109  1  9.47575422  6.59781643  6.40063906  1
  Mo  Mo110  1  11.68756054  11.17977269  11.29952086  1
  Mo  Mo111  1  7.99424295  8.29883623  8.23865433  1
  Mo  Mo112  1  9.58287224  9.73681715  9.80581633  1
  Mo  Mo113  1  8.41925960  7.97098838  11.48798025  1
  Mo  Mo114  1  11.09408225  11.67157426  8.05437520  1
  Mo  Mo115  1  8.16440252  11.46216390  7.99621890  1
  Mo  Mo116  1  11.50207996  8.62897777  11.16775815  1
  Mo  Mo117  1  8.58518926  11.30547848  11.32980543  1
  Mo  Mo118  1  6.61435876  9.98884436  13.06416804  1
  Mo  Mo119  1  10.93699965  7.61659932  8.16915869  1
  Mo  Mo120  1  6.65318259  12.85316898  9.96560964  1
  Mo  Mo121  1  10.05219372  9.77362532  6.56274591  1
  Mo  Mo122  1  6.55149593  6.66692483  12.78435847  1
  Mo  Mo123  1  12.71773241  9.27507178  9.19268782  1
  Mo  Mo124  1  12.87620512  9.59833226  6.69580936  1
  Mo  Mo125  1  9.85798522  6.58190959  12.58239513  1
  Mo  Mo126  1  13.18212893  12.17687977  12.97986771  1
  Mo  Mo127  1  6.61245232  12.97063340  12.76767713  1
