# generated using pymatgen
data_Mo
_symmetry_space_group_name_H-M   'P 1'
_cell_length_a   13.02733009
_cell_length_b   13.02733009
_cell_length_c   13.02733009
_cell_angle_alpha   90.00000000
_cell_angle_beta   90.00000000
_cell_angle_gamma   90.00000000
_symmetry_Int_Tables_number   1
_chemical_formula_structural   Mo
_chemical_formula_sum   Mo128
_cell_volume   2210.88550621
_cell_formula_units_Z   128
loop_
 _symmetry_equiv_pos_site_id
 _symmetry_equiv_pos_as_xyz
  1  'x, y, z'
loop_
 _atom_site_type_symbol
 _atom_site_label
 _atom_site_symmetry_multiplicity
 _atom_site_fract_x
 _atom_site_fract_y
 _atom_site_fract_z
 _atom_site_occupancy
  Mo  Mo0  1  6.37061265  4.83357636  0.88602427  1
  Mo  Mo1  1  0.88413967  4.44842612  3.53965070  1
  Mo  Mo2  1  1.58172838  1.26559717  4.00075066  1
  Mo  Mo3  1  2.39737626  4.70634144  0.66307224  1
  Mo  Mo4  1  1.83831316  2.00971390  6.20222051  1
  Mo  Mo5  1  6.37903275  2.28879863  2.28508505  1
  Mo  Mo6  1  4.60937124  4.96063254  6.04480031  1
  Mo  Mo7  1  4.32050608  2.64571967  4.93803330  1
  Mo  Mo8  1  0.76869588  2.78769970  1.78733579  1
  Mo  Mo9  1  3.74886247  2.59118759  2.55770576  1
  Mo  Mo10  1  1.57652539  0.16828093  1.34132846  1
  Mo  Mo11  1  6.27792200  4.17915161  3.99115889  1
  Mo  Mo12  1  4.15036637  5.42711422  2.54462878  1
  Mo  Mo13  1  1.59428903  6.32765820  4.27584379  1
  Mo  Mo14  1  4.99795703  2.76693739  0.05639841  1
  Mo  Mo15  1  4.98588292  0.49697278  1.80983573  1
  Mo  Mo16  1  2.29739746  2.01688290  9.28223085  1
  Mo  Mo17  1  0.74922241  6.02374013  9.36085158  1
  Mo  Mo18  1  3.60050779  4.09401721  8.25333987  1
  Mo  Mo19  1  3.72189431  4.61593455  10.96023437  1
  Mo  Mo20  1  5.08772844  1.39033982  10.94424809  1
  Mo  Mo21  1  1.44636131  0.67491896  11.28293882  1
  Mo  Mo22  1  4.32056566  1.47525577  7.92737859  1
  Mo  Mo23  1  6.40898965  5.36424147  8.63535242  1
  Mo  Mo24  1  1.15554007  4.46059953  7.25129789  1
  Mo  Mo25  1  2.63311931  2.22247046  12.43275957  1
  Mo  Mo26  1  1.39893865  3.96005018  10.73106457  1
  Mo  Mo27  1  6.20163467  2.79683472  9.29427518  1
  Mo  Mo28  1  6.24608845  4.98017354  11.43773765  1
  Mo  Mo29  1  1.72762057  6.04964585  11.69649697  1
  Mo  Mo30  1  4.91212758  6.39073948  12.93389474  1
  Mo  Mo31  1  3.28078216  9.83283414  3.79560000  1
  Mo  Mo32  1  1.57533386  8.01161935  0.40369829  1
  Mo  Mo33  1  1.24820092  11.76828630  3.68803516  1
  Mo  Mo34  1  5.83673042  10.49335552  2.37774590  1
  Mo  Mo35  1  3.79136016  11.74346288  6.01800095  1
  Mo  Mo36  1  3.31895065  7.76705903  1.97276672  1
  Mo  Mo37  1  0.31186554  13.01035087  6.06141215  1
  Mo  Mo38  1  0.65993058  10.12557175  1.18198197  1
  Mo  Mo39  1  3.64468354  7.19359834  5.16767971  1
  Mo  Mo40  1  6.04477053  6.77840184  2.36180927  1
  Mo  Mo41  1  6.38201156  11.56245051  4.86303679  1
  Mo  Mo42  1  3.35851917  10.40706931  1.04683335  1
  Mo  Mo43  1  0.88357469  9.09581691  4.40808310  1
  Mo  Mo44  1  5.51444301  8.76530798  4.15637364  1
  Mo  Mo45  1  3.71983893  12.49134283  3.73409750  1
  Mo  Mo46  1  5.30710789  9.66679525  6.26182650  1
  Mo  Mo47  1  5.82968057  11.53117300  0.29271378  1
  Mo  Mo48  1  1.29727186  10.22079438  6.28077173  1
  Mo  Mo49  1  3.26713921  10.05308736  8.50789906  1
  Mo  Mo50  1  3.16949381  6.88108143  8.27802428  1
  Mo  Mo51  1  5.75996648  8.90735751  9.38638992  1
  Mo  Mo52  1  1.61168528  7.91248454  6.58739060  1
  Mo  Mo53  1  4.26748326  6.94744932  10.61409663  1
  Mo  Mo54  1  2.89667451  9.02188284  11.72072463  1
  Mo  Mo55  1  1.43440635  10.79451323  9.83974498  1
  Mo  Mo56  1  5.09451020  8.91122004  12.04452130  1
  Mo  Mo57  1  4.58665285  11.37716851  10.83055684  1
  Mo  Mo58  1  0.36830208  11.18096421  12.08066420  1
  Mo  Mo59  1  5.04993727  11.79330830  8.17586101  1
  Mo  Mo60  1  1.48755825  8.28582876  9.45380039  1
  Mo  Mo61  1  3.57153389  12.90202147  12.73818691  1
  Mo  Mo62  1  2.48768386  12.74027208  7.75759634  1
  Mo  Mo63  1  5.66088132  7.10943702  6.96298878  1
  Mo  Mo64  1  8.92182460  4.94783359  2.06193244  1
  Mo  Mo65  1  10.23906442  0.36712843  4.66378417  1
  Mo  Mo66  1  6.73589422  1.28110685  5.39852757  1
  Mo  Mo67  1  12.92595125  5.43046042  1.29908893  1
  Mo  Mo68  1  8.78040062  2.91348493  3.72424757  1
  Mo  Mo69  1  8.84795011  2.74368281  1.14827177  1
  Mo  Mo70  1  11.77851355  5.93461412  3.92916985  1
  Mo  Mo71  1  9.41510565  5.01402275  4.68278898  1
  Mo  Mo72  1  9.95190711  0.22876568  1.72490985  1
  Mo  Mo73  1  11.45928438  3.52790425  3.51112362  1
  Mo  Mo74  1  12.20805798  0.37841316  3.36565839  1
  Mo  Mo75  1  7.17415664  3.78856008  6.17444806  1
  Mo  Mo76  1  10.60317432  6.47112763  0.97682436  1
  Mo  Mo77  1  11.17341789  3.53599669  0.45633983  1
  Mo  Mo78  1  12.04889022  0.53199168  0.01558305  1
  Mo  Mo79  1  12.39919830  2.68224982  5.76131687  1
  Mo  Mo80  1  9.12700505  1.96780204  6.26843946  1
  Mo  Mo81  1  7.82984242  0.03581533  2.82439864  1
  Mo  Mo82  1  12.75735059  6.11910177  6.10001753  1
  Mo  Mo83  1  12.98612321  1.40384376  8.21408908  1
  Mo  Mo84  1  8.80265233  4.03516585  8.28965156  1
  Mo  Mo85  1  10.12140141  1.10355983  11.96786658  1
  Mo  Mo86  1  11.80939388  5.57780230  11.80125180  1
  Mo  Mo87  1  10.56812365  4.13453896  6.92230816  1
  Mo  Mo88  1  12.60255175  2.61978417  11.33586235  1
  Mo  Mo89  1  9.35941183  4.95047480  12.38897106  1
  Mo  Mo90  1  12.07152918  3.80122002  8.84982676  1
  Mo  Mo91  1  11.22842659  6.39023308  9.28254859  1
  Mo  Mo92  1  7.58439838  2.82213474  11.39514067  1
  Mo  Mo93  1  10.29437099  3.39654865  10.85071345  1
  Mo  Mo94  1  9.02035372  1.23840064  8.96031083  1
  Mo  Mo95  1  6.83792840  0.82790073  8.34294248  1
  Mo  Mo96  1  7.12529422  0.88684543  12.82596252  1
  Mo  Mo97  1  11.81485503  10.63951581  5.50449378  1
  Mo  Mo98  1  7.86369163  8.85670781  6.17156855  1
  Mo  Mo99  1  7.81040072  7.56086578  0.14468280  1
  Mo  Mo100  1  8.11217405  9.57242655  3.64888367  1
  Mo  Mo101  1  11.89826172  10.74119253  2.51009444  1
  Mo  Mo102  1  11.12694845  8.29472547  4.49729847  1
  Mo  Mo103  1  10.29536393  8.97127285  1.49316835  1
  Mo  Mo104  1  13.00181162  7.90295235  2.16901074  1
  Mo  Mo105  1  9.18407906  7.16298610  2.92683000  1
  Mo  Mo106  1  9.62414862  11.35363591  3.90488262  1
  Mo  Mo107  1  7.33841816  7.05813198  4.59482472  1
  Mo  Mo108  1  8.50036267  11.21720640  1.17826839  1
  Mo  Mo109  1  8.09032944  12.58120361  6.12658851  1
  Mo  Mo110  1  12.53334406  9.00383125  8.11535145  1
  Mo  Mo111  1  9.70260055  10.80354896  7.17052249  1
  Mo  Mo112  1  10.85875624  7.83884835  7.15896471  1
  Mo  Mo113  1  11.93013499  12.87491430  10.44658820  1
  Mo  Mo114  1  7.53985524  9.47270591  11.01087415  1
  Mo  Mo115  1  10.77634249  11.15077894  12.72716531  1
  Mo  Mo116  1  12.41736905  8.07981424  12.31747961  1
  Mo  Mo117  1  11.82806109  9.75872134  10.48501485  1
  Mo  Mo118  1  9.28545790  8.96895931  8.99258127  1
  Mo  Mo119  1  9.71633287  11.28204517  10.16360122  1
  Mo  Mo120  1  9.39259577  6.87771537  10.97353973  1
  Mo  Mo121  1  7.37440219  12.68109305  10.77703755  1
  Mo  Mo122  1  12.64286498  11.43317015  8.16139393  1
  Mo  Mo123  1  7.38046903  11.15395633  9.06732955  1
  Mo  Mo124  1  9.71175543  8.93618247  11.94919937  1
  Mo  Mo125  1  6.83155374  7.26135634  10.77376085  1
  Mo  Mo126  1  8.32619164  6.48272514  7.30018017  1
  Mo  Mo127  1  10.99766809  12.98463381  7.37495824  1
