# generated using pymatgen
data_Mo
_symmetry_space_group_name_H-M   'P 1'
_cell_length_a   13.02733009
_cell_length_b   13.02733009
_cell_length_c   13.02733009
_cell_angle_alpha   90.00000000
_cell_angle_beta   90.00000000
_cell_angle_gamma   90.00000000
_symmetry_Int_Tables_number   1
_chemical_formula_structural   Mo
_chemical_formula_sum   Mo128
_cell_volume   2210.88550621
_cell_formula_units_Z   128
loop_
 _symmetry_equiv_pos_site_id
 _symmetry_equiv_pos_as_xyz
  1  'x, y, z'
loop_
 _atom_site_type_symbol
 _atom_site_label
 _atom_site_symmetry_multiplicity
 _atom_site_fract_x
 _atom_site_fract_y
 _atom_site_fract_z
 _atom_site_occupancy
  Mo  Mo0  1  3.47264732  5.70503722  1.61743438  1
  Mo  Mo1  1  5.62806476  4.72296320  0.42246877  1
  Mo  Mo2  1  4.63768979  3.06861143  4.33944138  1
  Mo  Mo3  1  5.23883356  5.25524680  5.99395202  1
  Mo  Mo4  1  3.33061765  5.61338916  4.16956977  1
  Mo  Mo5  1  5.19055697  1.10646913  1.29486895  1
  Mo  Mo6  1  1.49302934  4.54206999  2.55879799  1
  Mo  Mo7  1  2.33132611  1.33921350  3.17823165  1
  Mo  Mo8  1  1.04867028  2.54552243  0.95976670  1
  Mo  Mo9  1  3.54835875  3.07172925  2.14728529  1
  Mo  Mo10  1  1.70978743  4.28510789  5.73762540  1
  Mo  Mo11  1  5.71559214  0.59810141  4.15657222  1
  Mo  Mo12  1  6.45671019  3.44797285  3.06842278  1
  Mo  Mo13  1  2.81256283  2.17049022  5.91023753  1
  Mo  Mo14  1  0.31970974  2.13090183  4.80563512  1
  Mo  Mo15  1  3.65617182  2.45320910  9.83778889  1
  Mo  Mo16  1  0.22469563  0.38444426  6.62940175  1
  Mo  Mo17  1  6.40570303  2.38219426  12.61406982  1
  Mo  Mo18  1  4.14032778  6.07944388  11.80969176  1
  Mo  Mo19  1  2.56047605  4.38048939  10.01088755  1
  Mo  Mo20  1  1.04296090  4.19907985  8.22460428  1
  Mo  Mo21  1  5.43782801  4.79420641  9.98417755  1
  Mo  Mo22  1  1.46407530  2.07808752  11.75190284  1
  Mo  Mo23  1  1.89880287  1.89577441  7.85303742  1
  Mo  Mo24  1  3.46872522  3.15316000  12.41111355  1
  Mo  Mo25  1  5.11265116  1.48879943  7.21418192  1
  Mo  Mo26  1  3.68119383  4.71864393  7.60377058  1
  Mo  Mo27  1  0.77480244  4.65541372  12.22612943  1
  Mo  Mo28  1  4.49454803  0.71104002  11.98047688  1
  Mo  Mo29  1  2.87512778  -0.05446308  9.55150537  1
  Mo  Mo30  1  5.16113626  9.71244056  2.60493976  1
  Mo  Mo31  1  3.85242577  12.14282204  3.24631732  1
  Mo  Mo32  1  1.30463945  6.78823191  4.59747586  1
  Mo  Mo33  1  4.68928279  11.46871728  5.65561876  1
  Mo  Mo34  1  2.62598009  8.06800822  2.61375704  1
  Mo  Mo35  1  4.74818380  11.57873467  0.58629241  1
  Mo  Mo36  1  3.49011308  9.42313851  4.82418317  1
  Mo  Mo37  1  1.74386502  11.78496763  4.42430769  1
  Mo  Mo38  1  3.00932318  7.64652644  6.65923950  1
  Mo  Mo39  1  5.63187764  7.71792852  5.49191328  1
  Mo  Mo40  1  6.65914021  9.85736960  5.03238215  1
  Mo  Mo41  1  0.60315645  9.70133952  4.03303103  1
  Mo  Mo42  1  5.69576319  7.40149943  0.78710791  1
  Mo  Mo43  1  0.74022640  7.65959348  1.34036531  1
  Mo  Mo44  1  4.99472006  6.90266787  3.22655788  1
  Mo  Mo45  1  2.51694571  12.46423566  1.15825078  1
  Mo  Mo46  1  3.07399315  7.36394657  8.96302155  1
  Mo  Mo47  1  1.82941645  7.10169211  12.02823714  1
  Mo  Mo48  1  2.42299403  10.61221005  9.09942127  1
  Mo  Mo49  1  2.19635622  11.11552968  12.03667710  1
  Mo  Mo50  1  5.45957333  7.16016616  8.20012839  1
  Mo  Mo51  1  0.87150257  6.64690723  7.37490859  1
  Mo  Mo52  1  1.44962807  8.84171447  10.41719727  1
  Mo  Mo53  1  4.38412354  10.81089669  10.76045550  1
  Mo  Mo54  1  5.70688408  8.24466160  10.49653291  1
  Mo  Mo55  1  4.84346601  9.87617582  7.81221779  1
  Mo  Mo56  1  -0.02638908  11.22336261  8.67162440  1
  Mo  Mo57  1  5.21142850  12.89785114  8.60046062  1
  Mo  Mo58  1  3.79404109  9.14665527  12.93180957  1
  Mo  Mo59  1  2.50162469  12.43792284  7.00006504  1
  Mo  Mo60  1  1.78193421  9.59622724  6.36338407  1
  Mo  Mo61  1  0.33431088  12.77770579  12.65388658  1
  Mo  Mo62  1  11.54904586  4.14131079  4.77377178  1
  Mo  Mo63  1  11.21234101  0.16319610  4.96676889  1
  Mo  Mo64  1  7.69707685  1.47755938  2.70273410  1
  Mo  Mo65  1  9.26465587  2.92858749  1.34924217  1
  Mo  Mo66  1  12.11730356  3.82350152  2.32585503  1
  Mo  Mo67  1  10.24015665  2.32195279  3.98258985  1
  Mo  Mo68  1  10.20709185  5.16226821  2.34504850  1
  Mo  Mo69  1  10.57696079  6.65223930  0.18680715  1
  Mo  Mo70  1  11.59968564  1.38953554  0.64120082  1
  Mo  Mo71  1  8.99163798  4.05313800  5.10869927  1
  Mo  Mo72  1  12.42302879  6.67428249  3.01869650  1
  Mo  Mo73  1  6.97311674  2.79603044  5.34056986  1
  Mo  Mo74  1  8.03981875  5.62488736  1.13038898  1
  Mo  Mo75  1  13.01084734  0.10325450  2.53228658  1
  Mo  Mo76  1  7.13332708  5.45671367  3.89430784  1
  Mo  Mo77  1  9.83265541  6.53972963  5.29268052  1
  Mo  Mo78  1  8.50113716  0.93467519  5.19479681  1
  Mo  Mo79  1  7.74236469  6.24300042  6.22007351  1
  Mo  Mo80  1  11.34559313  4.20451121  12.36404834  1
  Mo  Mo81  1  8.55430892  1.17282709  12.82020348  1
  Mo  Mo82  1  7.85180618  0.93245995  8.44909735  1
  Mo  Mo83  1  9.96600681  2.32281664  10.01992328  1
  Mo  Mo84  1  12.50087503  2.68317325  6.99126762  1
  Mo  Mo85  1  12.45986674  3.51585000  10.12438022  1
  Mo  Mo86  1  6.55470312  2.33122682  10.05169725  1
  Mo  Mo87  1  9.95796402  4.47090621  8.94327204  1
  Mo  Mo88  1  7.37983356  6.11436546  9.03994436  1
  Mo  Mo89  1  8.74153708  3.80638329  11.99874692  1
  Mo  Mo90  1  10.86411810  0.19423431  7.79112781  1
  Mo  Mo91  1  12.58457960  0.81581272  9.94396362  1
  Mo  Mo92  1  7.19370756  3.85611949  7.92491611  1
  Mo  Mo93  1  9.97067361  2.73254206  6.98793135  1
  Mo  Mo94  1  12.83906928  6.17867798  9.80665039  1
  Mo  Mo95  1  7.28912878  6.06198805  11.64059463  1
  Mo  Mo96  1  11.86102659  5.20754612  7.12079622  1
  Mo  Mo97  1  9.91653870  13.21390290  2.10215631  1
  Mo  Mo98  1  9.52915436  7.73418289  2.61656705  1
  Mo  Mo99  1  7.79890251  11.82895473  3.69067637  1
  Mo  Mo100  1  10.88715423  11.05188244  3.63648189  1
  Mo  Mo101  1  12.40177994  11.04900292  5.77761097  1
  Mo  Mo102  1  11.65320493  8.83943071  2.66172581  1
  Mo  Mo103  1  9.48229768  11.04473329  6.21244775  1
  Mo  Mo104  1  9.02875396  10.64845224  1.47887006  1
  Mo  Mo105  1  8.33462167  8.35440097  0.33940762  1
  Mo  Mo106  1  7.21217619  8.53093519  2.88559333  1
  Mo  Mo107  1  11.70851151  8.12006790  5.38725774  1
  Mo  Mo108  1  8.74916283  8.75495165  4.79301489  1
  Mo  Mo109  1  13.15482317  10.66781450  1.41323694  1
  Mo  Mo110  1  6.98968885  12.24519382  0.85424632  1
  Mo  Mo111  1  8.45353577  8.18472794  10.48640496  1
  Mo  Mo112  1  9.79733665  7.47825345  8.08952516  1
  Mo  Mo113  1  11.02338515  11.67951775  12.95315771  1
  Mo  Mo114  1  12.59838142  8.23671811  8.64723787  1
  Mo  Mo115  1  7.61532836  8.44787604  7.45455205  1
  Mo  Mo116  1  11.58975627  8.53195792  12.39403503  1
  Mo  Mo117  1  6.92826578  12.09903353  6.45890458  1
  Mo  Mo118  1  10.37112500  12.54873458  10.20093565  1
  Mo  Mo119  1  6.60427052  10.64219674  9.63474326  1
  Mo  Mo120  1  8.80154024  10.98555426  11.86519692  1
  Mo  Mo121  1  10.70653904  9.46633125  10.34093973  1
  Mo  Mo122  1  11.04642128  9.84785727  7.98562426  1
  Mo  Mo123  1  9.01790116  10.81784725  8.72459758  1
  Mo  Mo124  1  12.93379545  11.01544166  11.06915954  1
  Mo  Mo125  1  10.05229302  6.61354455  10.74973178  1
  Mo  Mo126  1  7.22918519  12.73441375  10.82896814  1
  Mo  Mo127  1  6.65971611  10.15377115  12.26376173  1
