# generated using pymatgen
data_Mo
_symmetry_space_group_name_H-M   'P 1'
_cell_length_a   13.02733009
_cell_length_b   13.02733009
_cell_length_c   13.02733009
_cell_angle_alpha   90.00000000
_cell_angle_beta   90.00000000
_cell_angle_gamma   90.00000000
_symmetry_Int_Tables_number   1
_chemical_formula_structural   Mo
_chemical_formula_sum   Mo128
_cell_volume   2210.88550621
_cell_formula_units_Z   128
loop_
 _symmetry_equiv_pos_site_id
 _symmetry_equiv_pos_as_xyz
  1  'x, y, z'
loop_
 _atom_site_type_symbol
 _atom_site_label
 _atom_site_symmetry_multiplicity
 _atom_site_fract_x
 _atom_site_fract_y
 _atom_site_fract_z
 _atom_site_occupancy
  Mo  Mo0  1  0.82432814  4.09483142  5.66808011  1
  Mo  Mo1  1  2.50910151  0.29989470  0.60274636  1
  Mo  Mo2  1  5.43665635  3.70585838  5.64372337  1
  Mo  Mo3  1  5.47027718  3.65983576  0.35265539  1
  Mo  Mo4  1  -0.09345987  2.97913790  0.09575425  1
  Mo  Mo5  1  5.48832877  1.09489149  0.39966796  1
  Mo  Mo6  1  2.77361986  6.00382181  4.27285505  1
  Mo  Mo7  1  5.92361238  0.85461271  5.73053583  1
  Mo  Mo8  1  1.06990920  5.21676057  0.59888880  1
  Mo  Mo9  1  3.51344709  4.68093219  2.23632192  1
  Mo  Mo10  1  3.72016660  1.79151605  2.53353768  1
  Mo  Mo11  1  1.93363509  0.65632225  3.31063976  1
  Mo  Mo12  1  3.17869833  2.96501834  4.53858478  1
  Mo  Mo13  1  1.52869562  2.95372865  2.20775513  1
  Mo  Mo14  1  1.84715030  0.33640697  5.71722055  1
  Mo  Mo15  1  4.97215061  6.02404794  4.40432980  1
  Mo  Mo16  1  3.68711173  1.11105650  11.50833546  1
  Mo  Mo17  1  1.77807169  5.18566180  8.27606819  1
  Mo  Mo18  1  5.62077661  4.57519436  7.84051649  1
  Mo  Mo19  1  5.59998451  1.51202422  8.39686887  1
  Mo  Mo20  1  4.32599702  5.47656247  9.76875000  1
  Mo  Mo21  1  1.13828283  4.30713122  11.18563102  1
  Mo  Mo22  1  0.04107849  3.33890867  8.46022817  1
  Mo  Mo23  1  2.91073449  3.02729534  9.55275647  1
  Mo  Mo24  1  6.43791390  5.83560840  11.65082188  1
  Mo  Mo25  1  1.06481544  1.29179085  10.94474456  1
  Mo  Mo26  1  0.76996386  0.93004711  7.94572806  1
  Mo  Mo27  1  3.78582950  5.85143581  12.41687258  1
  Mo  Mo28  1  5.56091245  2.88698344  10.82251405  1
  Mo  Mo29  1  6.42631640  6.69480650  6.54460495  1
  Mo  Mo30  1  2.99509440  2.47005923  7.18258667  1
  Mo  Mo31  1  2.98946445  2.88957501  12.97033552  1
  Mo  Mo32  1  0.02025978  11.14909094  4.30295096  1
  Mo  Mo33  1  5.90901621  11.12347318  5.80838208  1
  Mo  Mo34  1  4.25060333  8.63163884  4.23514331  1
  Mo  Mo35  1  1.73198949  6.84205901  6.34833115  1
  Mo  Mo36  1  4.49658355  9.27686899  1.04917668  1
  Mo  Mo37  1  1.89373889  8.83415822  3.55969809  1
  Mo  Mo38  1  0.51830504  7.57696129  1.51643286  1
  Mo  Mo39  1  5.78158271  7.44579434  2.45641628  1
  Mo  Mo40  1  3.68847205  7.04584935  1.99452197  1
  Mo  Mo41  1  6.29593388  10.67863751  3.11540854  1
  Mo  Mo42  1  1.55147359  10.76323572  1.85264124  1
  Mo  Mo43  1  4.08085087  12.08185572  1.91132380  1
  Mo  Mo44  1  2.49623305  9.41774686  5.89425124  1
  Mo  Mo45  1  6.25916543  11.51230720  0.46490887  1
  Mo  Mo46  1  4.04991096  12.26108080  4.46450177  1
  Mo  Mo47  1  0.06673905  9.79025701  0.33634144  1
  Mo  Mo48  1  2.99308866  10.79352030  12.92068868  1
  Mo  Mo49  1  3.59469911  12.64643955  7.28995292  1
  Mo  Mo50  1  2.62865109  8.00904764  12.97450585  1
  Mo  Mo51  1  0.91195779  11.82607522  11.51925776  1
  Mo  Mo52  1  2.08632890  7.00041257  10.66175759  1
  Mo  Mo53  1  3.78273154  7.55983313  8.47859750  1
  Mo  Mo54  1  1.00963794  8.29661205  8.30581658  1
  Mo  Mo55  1  4.74915687  10.62223871  8.53186855  1
  Mo  Mo56  1  3.08732829  9.67443094  10.29308018  1
  Mo  Mo57  1  5.48710746  10.08227970  11.99159777  1
  Mo  Mo58  1  5.29073436  7.92339692  12.06080546  1
  Mo  Mo59  1  5.47660219  8.78631852  6.87546141  1
  Mo  Mo60  1  2.98669415  12.07609669  10.04256224  1
  Mo  Mo61  1  5.85297486  12.08165713  10.61707544  1
  Mo  Mo62  1  1.32449818  11.06548567  7.85120049  1
  Mo  Mo63  1  -0.19974809  9.17163756  10.40220392  1
  Mo  Mo64  1  8.29542053  1.18669842  4.56702249  1
  Mo  Mo65  1  7.72657700  2.59741330  0.97341064  1
  Mo  Mo66  1  9.19987668  3.40147362  3.82005603  1
  Mo  Mo67  1  6.77873944  5.05005642  2.60094816  1
  Mo  Mo68  1  12.75526542  5.94103842  3.41336900  1
  Mo  Mo69  1  11.43317015  4.19230802  4.66867935  1
  Mo  Mo70  1  11.55242185  5.86947747  0.93152063  1
  Mo  Mo71  1  9.98080157  6.23327957  3.01517158  1
  Mo  Mo72  1  7.18269589  0.08071970  2.16666741  1
  Mo  Mo73  1  12.89596456  1.73981383  4.98919933  1
  Mo  Mo74  1  11.57704668  3.70101285  1.85430937  1
  Mo  Mo75  1  12.17628401  1.42763452  2.43095739  1
  Mo  Mo76  1  7.99058895  5.19173857  4.99159231  1
  Mo  Mo77  1  9.72092024  1.34935139  2.29357466  1
  Mo  Mo78  1  7.73009199  6.37127792  0.56931716  1
  Mo  Mo79  1  10.45989355  2.02598813  5.62338803  1
  Mo  Mo80  1  6.52180713  2.49318473  3.08149975  1
  Mo  Mo81  1  11.07958537  1.35142663  0.02728074  1
  Mo  Mo82  1  7.91929609  4.04931520  11.93817777  1
  Mo  Mo83  1  7.41474521  0.87852958  11.21601488  1
  Mo  Mo84  1  7.99523589  1.80630088  9.10139721  1
  Mo  Mo85  1  7.75938363  4.52551773  9.41466876  1
  Mo  Mo86  1  10.59006756  3.76261464  12.67910717  1
  Mo  Mo87  1  10.23608561  1.12564274  10.51430648  1
  Mo  Mo88  1  12.69479557  5.79775765  9.72997582  1
  Mo  Mo89  1  8.80993056  0.08712236  6.90927090  1
  Mo  Mo90  1  8.93068160  5.48305628  7.31193654  1
  Mo  Mo91  1  11.96816446  3.15826369  10.88159378  1
  Mo  Mo92  1  12.10389892  5.56649275  6.91165395  1
  Mo  Mo93  1  10.46138295  3.52076504  8.67395780  1
  Mo  Mo94  1  10.96460330  0.88423599  8.18758760  1
  Mo  Mo95  1  9.67464938  5.99206544  10.15913301  1
  Mo  Mo96  1  8.15809738  2.74447716  7.00286512  1
  Mo  Mo97  1  9.02206157  0.10401707  12.95087396  1
  Mo  Mo98  1  8.91559889  11.38719717  1.88862526  1
  Mo  Mo99  1  8.70807511  11.49085977  4.70977700  1
  Mo  Mo100  1  10.63097655  10.09389706  4.25445593  1
  Mo  Mo101  1  10.10759959  9.41805467  0.45106336  1
  Mo  Mo102  1  10.93322650  12.86190683  4.52275737  1
  Mo  Mo103  1  8.62809405  8.66310500  3.13923902  1
  Mo  Mo104  1  11.28274023  8.47438745  2.48559869  1
  Mo  Mo105  1  10.89857300  7.13421079  5.33119653  1
  Mo  Mo106  1  6.80318554  8.33367838  4.76627510  1
  Mo  Mo107  1  11.19595756  11.53762709  2.36233553  1
  Mo  Mo108  1  12.83003356  8.97270268  5.98160982  1
  Mo  Mo109  1  12.97837831  12.77542204  0.70929741  1
  Mo  Mo110  1  7.10761995  9.17476531  1.06208486  1
  Mo  Mo111  1  8.57605424  7.81012269  6.36254007  1
  Mo  Mo112  1  12.32353652  11.97402279  9.72208197  1
  Mo  Mo113  1  8.20680092  10.35245779  7.15871647  1
  Mo  Mo114  1  10.81198892  11.79201749  12.09277803  1
  Mo  Mo115  1  8.68681633  7.95795112  9.13819545  1
  Mo  Mo116  1  10.62581328  9.70042602  9.91632026  1
  Mo  Mo117  1  12.88116980  7.27361911  11.94681632  1
  Mo  Mo118  1  11.40358063  7.90498787  8.19089408  1
  Mo  Mo119  1  8.06347050  7.99005276  11.66343218  1
  Mo  Mo120  1  10.57001023  7.42036523  11.76262656  1
  Mo  Mo121  1  8.55209468  10.47399325  11.77076864  1
  Mo  Mo122  1  6.62957055  12.44924232  8.02576870  1
  Mo  Mo123  1  9.24074596  12.03399617  9.56406602  1
  Mo  Mo124  1  6.66547514  6.82445425  8.90573903  1
  Mo  Mo125  1  10.72312108  10.39406184  7.37515682  1
  Mo  Mo126  1  6.94260379  9.63451488  9.30359885  1
  Mo  Mo127  1  12.68427044  11.97928536  6.65001512  1
