# generated using pymatgen
data_Mo
_symmetry_space_group_name_H-M   'P 1'
_cell_length_a   13.34506985
_cell_length_b   13.34506985
_cell_length_c   13.34506985
_cell_angle_alpha   90.00000000
_cell_angle_beta   90.00000000
_cell_angle_gamma   90.00000000
_symmetry_Int_Tables_number   1
_chemical_formula_structural   Mo
_chemical_formula_sum   Mo128
_cell_volume   2376.63535615
_cell_formula_units_Z   128
loop_
 _symmetry_equiv_pos_site_id
 _symmetry_equiv_pos_as_xyz
  1  'x, y, z'
loop_
 _atom_site_type_symbol
 _atom_site_label
 _atom_site_symmetry_multiplicity
 _atom_site_fract_x
 _atom_site_fract_y
 _atom_site_fract_z
 _atom_site_occupancy
  Mo  Mo0  1  4.53917061  5.20048634  5.06973643  1
  Mo  Mo1  1  2.12446760  1.60663123  1.33399066  1
  Mo  Mo2  1  2.79107568  3.75617048  3.16671358  1
  Mo  Mo3  1  1.62000609  1.39168028  4.85718839  1
  Mo  Mo4  1  3.18319633  6.93680504  3.09254121  1
  Mo  Mo5  1  1.30201809  5.31696775  1.76780472  1
  Mo  Mo6  1  4.62994489  5.49532898  1.83764789  1
  Mo  Mo7  1  1.67147000  5.19124210  5.17541469  1
  Mo  Mo8  1  0.11311535  3.65407673  3.44755581  1
  Mo  Mo9  1  4.96178435  1.88506062  1.86472528  1
  Mo  Mo10  1  3.61629548  3.71808143  0.20942923  1
  Mo  Mo11  1  4.89839527  2.01338777  5.12127978  1
  Mo  Mo12  1  0.33876917  0.28550109  2.72616741  1
  Mo  Mo13  1  6.70942252  6.49583190  -0.02640110  1
  Mo  Mo14  1  6.75897007  -0.01653289  6.59259359  1
  Mo  Mo15  1  5.02633517  4.93424028  12.02724420  1
  Mo  Mo16  1  1.76063572  1.61513077  8.64296825  1
  Mo  Mo17  1  4.83159048  4.99625911  8.37534201  1
  Mo  Mo18  1  1.50170760  2.00775782  11.94423469  1
  Mo  Mo19  1  3.28062329  2.76792040  10.21076572  1
  Mo  Mo20  1  1.95608539  4.69031544  8.44186877  1
  Mo  Mo21  1  0.05940870  3.47417645  6.82364997  1
  Mo  Mo22  1  1.39660525  5.83566798  11.19079429  1
  Mo  Mo23  1  0.21727243  4.21166035  12.88007757  1
  Mo  Mo24  1  5.09899828  1.57167986  8.56444681  1
  Mo  Mo25  1  4.91162118  1.26998596  12.17826988  1
  Mo  Mo26  1  6.54762348  3.52576944  6.67218740  1
  Mo  Mo27  1  2.71393443  -0.01934956  10.68509160  1
  Mo  Mo28  1  3.69378427  6.79599668  10.10054974  1
  Mo  Mo29  1  3.29815855  3.35319703  6.75978428  1
  Mo  Mo30  1  0.25615683  0.51417641  7.00186225  1
  Mo  Mo31  1  6.68347709  6.27314598  6.58185001  1
  Mo  Mo32  1  0.19402381  3.29083068  9.88570802  1
  Mo  Mo33  1  3.20722540  6.71500283  13.24766275  1
  Mo  Mo34  1  4.95633313  11.57813891  5.41419612  1
  Mo  Mo35  1  1.71452374  8.38252094  1.81948708  1
  Mo  Mo36  1  3.22765011  10.23241174  3.29766208  1
  Mo  Mo37  1  2.17401514  8.13783154  5.07386705  1
  Mo  Mo38  1  5.00042945  11.54239319  1.63329158  1
  Mo  Mo39  1  1.22080580  11.51538531  1.45755171  1
  Mo  Mo40  1  3.81182459  13.11450994  3.33307021  1
  Mo  Mo41  1  1.36590364  11.80214544  4.95565793  1
  Mo  Mo42  1  5.37306868  8.50978564  5.30598587  1
  Mo  Mo43  1  4.85892603  8.42140434  1.19508874  1
  Mo  Mo44  1  0.01373927  9.98348250  3.24772729  1
  Mo  Mo45  1  6.50556268  13.58109091  3.35565952  1
  Mo  Mo46  1  3.51095482  6.54117932  6.60507480  1
  Mo  Mo47  1  3.43146031  13.00737206  0.38522073  1
  Mo  Mo48  1  3.35405096  10.34391854  0.36610968  1
  Mo  Mo49  1  4.44971694  11.17232566  11.33139413  1
  Mo  Mo50  1  1.49215555  8.47845849  8.04379050  1
  Mo  Mo51  1  5.02595785  8.24619072  11.94006435  1
  Mo  Mo52  1  1.74889921  8.21831899  11.96598000  1
  Mo  Mo53  1  2.97829391  9.66411432  9.87976033  1
  Mo  Mo54  1  1.37924871  11.78337894  8.17667522  1
  Mo  Mo55  1  4.60545907  11.71278113  8.52066823  1
  Mo  Mo56  1  1.37100734  11.22713577  11.31600361  1
  Mo  Mo57  1  6.39393673  9.89832824  9.95200640  1
  Mo  Mo58  1  5.08392550  8.30358247  8.38317628  1
  Mo  Mo59  1  3.40396589  9.62602527  6.91859458  1
  Mo  Mo60  1  0.17253765  6.62693927  6.93553408  1
  Mo  Mo61  1  6.15915684  10.27123557  12.72537803  1
  Mo  Mo62  1  3.29939972  13.09266533  6.71418862  1
  Mo  Mo63  1  11.87125384  1.88179386  5.48373148  1
  Mo  Mo64  1  8.18962312  1.97222061  1.87760367  1
  Mo  Mo65  1  11.85963648  4.99235687  5.36663445  1
  Mo  Mo66  1  8.55278973  1.77525175  4.64004305  1
  Mo  Mo67  1  10.19835401  3.43119221  3.26047660  1
  Mo  Mo68  1  8.82906445  4.90789767  1.90920884  1
  Mo  Mo69  1  11.71238396  5.05565659  1.76108254  1
  Mo  Mo70  1  8.37219440  5.06786971  5.03237222  1
  Mo  Mo71  1  12.40604957  1.69659130  1.41343553  1
  Mo  Mo72  1  10.67377212  0.25736126  2.71951473  1
  Mo  Mo73  1  10.13987004  3.29236973  0.10673772  1
  Mo  Mo74  1  10.27461155  6.47309365  3.56562592  1
  Mo  Mo75  1  9.96511317  3.12414639  6.63103017  1
  Mo  Mo76  1  6.81520008  3.41148242  3.36815066  1
  Mo  Mo77  1  13.24200301  6.48762031  3.92208028  1
  Mo  Mo78  1  11.54477624  4.85606637  11.26774688  1
  Mo  Mo79  1  8.48052380  1.60056439  7.94419894  1
  Mo  Mo80  1  10.00929885  3.02919184  9.69013920  1
  Mo  Mo81  1  8.42223841  1.57450973  11.60643761  1
  Mo  Mo82  1  6.82312371  3.33699231  10.07820866  1
  Mo  Mo83  1  8.41984543  4.92821316  8.59147455  1
  Mo  Mo84  1  7.03586041  3.05524650  13.36016249  1
  Mo  Mo85  1  8.88544340  5.00737007  11.57585516  1
  Mo  Mo86  1  11.78417329  5.01939454  8.34896961  1
  Mo  Mo87  1  11.43257438  1.33553964  8.18366550  1
  Mo  Mo88  1  7.05417016  6.48469115  10.16816873  1
  Mo  Mo89  1  11.49165412  1.82142331  11.68269515  1
  Mo  Mo90  1  13.12275131  0.01284264  13.06347299  1
  Mo  Mo91  1  9.76149163  0.25538035  13.13228350  1
  Mo  Mo92  1  12.30715307  12.47049116  4.71487077  1
  Mo  Mo93  1  8.69777836  8.12953059  1.92330854  1
  Mo  Mo94  1  9.76432150  9.63774192  3.47988583  1
  Mo  Mo95  1  8.08171075  8.15962650  5.11209511  1
  Mo  Mo96  1  6.86698173  6.85695307  3.49236705  1
  Mo  Mo97  1  8.31309480  11.61626768  1.64096698  1
  Mo  Mo98  1  11.34072774  11.70126307  1.45931913  1
  Mo  Mo99  1  8.12799153  12.11462263  4.84806330  1
  Mo  Mo100  1  6.71729651  10.17750234  3.16549227  1
  Mo  Mo101  1  12.09823918  8.26368627  1.96653108  1
  Mo  Mo102  1  13.13913477  9.86949336  6.41697286  1
  Mo  Mo103  1  11.65022612  8.41540700  4.89213976  1
  Mo  Mo104  1  6.91634061  13.27963532  0.02478400  1
  Mo  Mo105  1  10.18574371  9.81659962  0.64266441  1
  Mo  Mo106  1  6.92581323  10.27977482  6.37512058  1
  Mo  Mo107  1  10.05745629  6.58201881  0.51431442  1
  Mo  Mo108  1  10.01873175  13.22234287  6.18487390  1
  Mo  Mo109  1  11.45938368  11.79787581  11.39464420  1
  Mo  Mo110  1  8.07996318  8.04319474  7.88008502  1
  Mo  Mo111  1  10.27282427  6.99421664  9.83821585  1
  Mo  Mo112  1  8.41138561  8.24244735  11.94314246  1
  Mo  Mo113  1  11.96737011  11.56364203  8.21330466  1
  Mo  Mo114  1  8.63164877  11.54457765  7.97813752  1
  Mo  Mo115  1  9.78209507  9.90143614  9.65500909  1
  Mo  Mo116  1  8.70570199  11.19556038  11.97084539  1
  Mo  Mo117  1  9.50848142  12.88812036  10.06341391  1
  Mo  Mo118  1  11.39613361  8.53470835  7.88113753  1
  Mo  Mo119  1  12.71574654  9.58781706  9.92859296  1
  Mo  Mo120  1  10.85508237  8.42193060  12.09545895  1
  Mo  Mo121  1  13.31061494  13.16356101  10.07681855  1
  Mo  Mo122  1  13.20000179  7.06011785  13.15651116  1
  Mo  Mo123  1  13.20814387  6.93929731  9.61666188  1
  Mo  Mo124  1  6.71049490  12.74761981  10.78140647  1
  Mo  Mo125  1  13.12195696  9.86690180  13.00697489  1
  Mo  Mo126  1  9.94575090  9.97285808  6.65704511  1
  Mo  Mo127  1  10.24671003  6.45706765  6.64273689  1
