# generated using pymatgen
data_Mo
_symmetry_space_group_name_H-M   'P 1'
_cell_length_a   13.34506985
_cell_length_b   13.34506985
_cell_length_c   13.34506985
_cell_angle_alpha   90.00000000
_cell_angle_beta   90.00000000
_cell_angle_gamma   90.00000000
_symmetry_Int_Tables_number   1
_chemical_formula_structural   Mo
_chemical_formula_sum   Mo128
_cell_volume   2376.63535615
_cell_formula_units_Z   128
loop_
 _symmetry_equiv_pos_site_id
 _symmetry_equiv_pos_as_xyz
  1  'x, y, z'
loop_
 _atom_site_type_symbol
 _atom_site_label
 _atom_site_symmetry_multiplicity
 _atom_site_fract_x
 _atom_site_fract_y
 _atom_site_fract_z
 _atom_site_occupancy
  Mo  Mo0  1  3.28979802  4.36024341  3.18078350  1
  Mo  Mo1  1  5.93804968  3.82178374  0.16240275  1
  Mo  Mo2  1  -0.17172642  3.55685829  3.39535713  1
  Mo  Mo3  1  3.61097334  1.00118805  3.39270599  1
  Mo  Mo4  1  0.37657126  2.72556172  6.95181824  1
  Mo  Mo5  1  4.20423319  1.13679342  0.82541839  1
  Mo  Mo6  1  5.62079647  4.56287201  3.95411242  1
  Mo  Mo7  1  3.27822038  2.38316734  5.67552714  1
  Mo  Mo8  1  1.65840295  5.73781406  4.52293609  1
  Mo  Mo9  1  1.34958969  1.83102500  1.56568252  1
  Mo  Mo10  1  5.88410343  3.31265543  6.10338358  1
  Mo  Mo11  1  1.38418361  1.48115381  4.22253301  1
  Mo  Mo12  1  3.07434068  4.20862197  0.59588120  1
  Mo  Mo13  1  5.15519850  2.74245157  2.39713796  1
  Mo  Mo14  1  0.53683622  4.33889527  0.96675797  1
  Mo  Mo15  1  0.18660360  5.89571086  6.52560014  1
  Mo  Mo16  1  4.04672363  5.17616932  6.06583071  1
  Mo  Mo17  1  4.93946313  2.55099351  10.52016481  1
  Mo  Mo18  1  1.02660723  4.84184752  8.89291028  1
  Mo  Mo19  1  6.21524784  1.85153908  12.26197445  1
  Mo  Mo20  1  6.40534558  4.71418564  10.52403726  1
  Mo  Mo21  1  2.42029324  2.60835546  8.35625776  1
  Mo  Mo22  1  4.46427339  5.64498440  11.77722273  1
  Mo  Mo23  1  3.93390616  4.31114269  9.04310190  1
  Mo  Mo24  1  2.66883524  2.61983381  12.12048096  1
  Mo  Mo25  1  3.50427236  0.51283793  11.08792604  1
  Mo  Mo26  1  4.42801134  1.23074509  8.25694423  1
  Mo  Mo27  1  1.07135889  0.72461346  10.87871427  1
  Mo  Mo28  1  1.73146324  4.89135534  11.42870193  1
  Mo  Mo29  1  3.27302732  8.79541383  3.69779573  1
  Mo  Mo30  1  2.12900532  7.77552878  6.90844677  1
  Mo  Mo31  1  3.17806285  10.16429628  5.93302542  1
  Mo  Mo32  1  6.04075906  9.20459313  4.92380452  1
  Mo  Mo33  1  4.90363797  11.61507616  0.87507118  1
  Mo  Mo34  1  2.80788610  11.63106244  3.27287838  1
  Mo  Mo35  1  5.25726246  11.97332774  4.71862407  1
  Mo  Mo36  1  3.43680231  7.31129113  -0.03365778  1
  Mo  Mo37  1  2.92778321  9.94038904  1.18069115  1
  Mo  Mo38  1  1.05662371  10.29923638  4.17079108  1
  Mo  Mo39  1  5.78594170  9.26224304  1.22534352  1
  Mo  Mo40  1  2.06087993  12.60831078  5.63858989  1
  Mo  Mo41  1  6.05703329  6.85775734  5.28580940  1
  Mo  Mo42  1  0.39495350  11.32920967  1.63079931  1
  Mo  Mo43  1  4.60637257  6.76711215  3.22859340  1
  Mo  Mo44  1  0.47095288  7.69152633  4.51742530  1
  Mo  Mo45  1  2.03640404  6.88190557  2.15289538  1
  Mo  Mo46  1  2.35139336  12.72041334  0.38895318  1
  Mo  Mo47  1  5.59760146  7.42021629  9.95925484  1
  Mo  Mo48  1  4.94409022  9.18439679  11.39384985  1
  Mo  Mo49  1  1.28688574  10.50378135  7.68152746  1
  Mo  Mo50  1  1.48254392  9.72396855  12.27736497  1
  Mo  Mo51  1  4.68241167  12.65299294  6.93299216  1
  Mo  Mo52  1  3.31869248  6.46616295  9.11547706  1
  Mo  Mo53  1  6.29083018  12.92992299  9.13981394  1
  Mo  Mo54  1  4.51546921  11.80194685  11.88743871  1
  Mo  Mo55  1  6.69155959  12.69261111  12.26058434  1
  Mo  Mo56  1  2.33783978  9.46704617  9.57860261  1
  Mo  Mo57  1  1.40430051  13.53094761  7.75689135  1
  Mo  Mo58  1  6.47459298  6.92637920  13.27109606  1
  Mo  Mo59  1  4.66281109  10.61221005  9.72240964  1
  Mo  Mo60  1  1.73348883  7.48162943  11.12615410  1
  Mo  Mo61  1  4.70030439  8.14976664  7.03273266  1
  Mo  Mo62  1  0.29290840  6.88384179  13.32958003  1
  Mo  Mo63  1  11.77970507  6.00293810  1.94408078  1
  Mo  Mo64  1  8.66625261  2.11167857  5.92234143  1
  Mo  Mo65  1  7.23761523  1.18283590  1.37578337  1
  Mo  Mo66  1  10.40160816  4.13439995  2.74188560  1
  Mo  Mo67  1  8.07843406  0.29053826  4.85251166  1
  Mo  Mo68  1  9.50453946  1.10946780  2.48672071  1
  Mo  Mo69  1  6.63159614  5.92390034  1.95568821  1
  Mo  Mo70  1  12.12316189  2.16336093  1.41232344  1
  Mo  Mo71  1  7.96449457  4.54899075  5.97997147  1
  Mo  Mo72  1  7.96341227  3.22602170  3.53065469  1
  Mo  Mo73  1  11.32911038  6.03213044  4.55973433  1
  Mo  Mo74  1  10.88000509  0.71160103  4.79250849  1
  Mo  Mo75  1  9.00726681  6.50750884  0.78968954  1
  Mo  Mo76  1  11.49264706  3.56896219  5.16973509  1
  Mo  Mo77  1  13.14588674  0.35616740  -0.33540609  1
  Mo  Mo78  1  12.79786241  0.00519398  3.21764131  1
  Mo  Mo79  1  12.98930061  0.34753779  6.05416371  1
  Mo  Mo80  1  10.81903877  3.72996688  0.24588390  1
  Mo  Mo81  1  11.34241573  1.48392411  7.85132957  1
  Mo  Mo82  1  7.79096894  1.52770269  10.47180879  1
  Mo  Mo83  1  12.01463390  4.19948695  8.50460251  1
  Mo  Mo84  1  7.67441803  6.26062504  8.85887241  1
  Mo  Mo85  1  8.24748154  0.38849643  7.76373269  1
  Mo  Mo86  1  13.12980116  2.94547735  12.36911232  1
  Mo  Mo87  1  8.44486744  4.00170388  12.71326420  1
  Mo  Mo88  1  9.20924007  1.81484013  13.05453656  1
  Mo  Mo89  1  10.66294911  2.53005247  11.20906432  1
  Mo  Mo90  1  9.69961181  3.44738701  8.62114350  1
  Mo  Mo91  1  7.26147550  3.03239903  8.21664093  1
  Mo  Mo92  1  12.39343927  5.34538560  10.92975122  1
  Mo  Mo93  1  13.27119535  2.20158900  9.52784369  1
  Mo  Mo94  1  10.08992532  5.37377366  10.26130620  1
  Mo  Mo95  1  9.76786628  5.99754645  7.58969074  1
  Mo  Mo96  1  11.47854736  12.28113813  1.35867507  1
  Mo  Mo97  1  8.81454772  9.55073088  0.36738461  1
  Mo  Mo98  1  11.97799454  10.94921278  4.13047785  1
  Mo  Mo99  1  10.29893850  7.65797500  2.89473828  1
  Mo  Mo100  1  9.09105081  6.95293033  5.48783231  1
  Mo  Mo101  1  9.40466988  10.58361347  2.97913790  1
  Mo  Mo102  1  12.65299294  8.30718683  2.20328692  1
  Mo  Mo103  1  10.87126724  8.93787046  5.06772077  1
  Mo  Mo104  1  8.35951459  9.52536134  5.26420309  1
  Mo  Mo105  1  8.79353717  12.34220374  0.25481438  1
  Mo  Mo106  1  9.48483960  12.02843572  5.18283193  1
  Mo  Mo107  1  7.39600849  8.08309093  3.04523770  1
  Mo  Mo108  1  7.12063735  11.06667719  2.65209433  1
  Mo  Mo109  1  11.16746027  10.48670284  9.87871774  1
  Mo  Mo110  1  7.27696531  9.33545226  9.42011005  1
  Mo  Mo111  1  10.83433000  11.63463701  11.93936930  1
  Mo  Mo112  1  12.17012780  9.22709307  7.25835767  1
  Mo  Mo113  1  8.32314332  6.92228830  11.50684605  1
  Mo  Mo114  1  12.47168269  7.79012495  11.07928749  1
  Mo  Mo115  1  13.82714064  11.39444561  10.16052312  1
  Mo  Mo116  1  10.17104825  7.85526160  9.64264703  1
  Mo  Mo117  1  11.99686034  13.41814999  9.98328391  1
  Mo  Mo118  1  9.21843467  9.37673857  11.44131223  1
  Mo  Mo119  1  9.79471529  11.95595134  9.31306154  1
  Mo  Mo120  1  13.23515175  7.52326327  8.79891889  1
  Mo  Mo121  1  10.89996311  7.23369313  12.79269914  1
  Mo  Mo122  1  7.52717544  8.04504160  7.19302244  1
  Mo  Mo123  1  11.54001014  11.91553882  7.40141007  1
  Mo  Mo124  1  7.13686193  11.62331753  7.36265575  1
  Mo  Mo125  1  9.45805016  10.19676531  7.53059114  1
  Mo  Mo126  1  7.32743628  10.55680418  11.35075640  1
  Mo  Mo127  1  12.07341576  9.44633351  13.32481394  1
