# generated using pymatgen
data_Mo
_symmetry_space_group_name_H-M   'P 1'
_cell_length_a   13.34506985
_cell_length_b   13.34506985
_cell_length_c   13.34506985
_cell_angle_alpha   90.00000000
_cell_angle_beta   90.00000000
_cell_angle_gamma   90.00000000
_symmetry_Int_Tables_number   1
_chemical_formula_structural   Mo
_chemical_formula_sum   Mo128
_cell_volume   2376.63535615
_cell_formula_units_Z   128
loop_
 _symmetry_equiv_pos_site_id
 _symmetry_equiv_pos_as_xyz
  1  'x, y, z'
loop_
 _atom_site_type_symbol
 _atom_site_label
 _atom_site_symmetry_multiplicity
 _atom_site_fract_x
 _atom_site_fract_y
 _atom_site_fract_z
 _atom_site_occupancy
  Mo  Mo0  1  6.40483918  5.63951332  6.32582127  1
  Mo  Mo1  1  4.97039311  1.96028551  4.26422643  1
  Mo  Mo2  1  6.41751898  4.13942421  3.17827137  1
  Mo  Mo3  1  5.37646452  3.13839503  6.42232479  1
  Mo  Mo4  1  3.50994203  3.76104580  2.64718922  1
  Mo  Mo5  1  0.39670305  0.57394723  5.98989091  1
  Mo  Mo6  1  4.57124247  0.62683799  1.98036269  1
  Mo  Mo7  1  1.59276983  6.51306928  4.30589998  1
  Mo  Mo8  1  4.23753629  6.15561205  1.03114495  1
  Mo  Mo9  1  5.32542757  3.16963282  0.84098763  1
  Mo  Mo10  1  2.61746069  0.86884547  3.89733630  1
  Mo  Mo11  1  4.55165183  5.33944784  4.37969504  1
  Mo  Mo12  1  1.35350186  5.88372612  1.69792183  1
  Mo  Mo13  1  1.67605737  0.12736896  1.48880935  1
  Mo  Mo14  1  3.28433687  1.03536493  6.63882472  1
  Mo  Mo15  1  2.51279523  3.45078286  5.50469237  1
  Mo  Mo16  1  6.22113595  0.54796108  6.61399137  1
  Mo  Mo17  1  0.85913455  2.49821892  2.98638634  1
  Mo  Mo18  1  0.76518089  5.83738576  6.64934985  1
  Mo  Mo19  1  2.84145729  1.23989997  10.53684615  1
  Mo  Mo20  1  4.89358945  0.69239962  12.47198057  1
  Mo  Mo21  1  4.09523852  5.26284277  12.08989851  1
  Mo  Mo22  1  0.60947847  2.98323873  11.91831904  1
  Mo  Mo23  1  1.67668292  2.94021478  7.77705790  1
  Mo  Mo24  1  5.53033000  3.35653330  10.87126724  1
  Mo  Mo25  1  2.29119161  4.57721002  10.10491866  1
  Mo  Mo26  1  5.84036457  4.44271674  8.60611043  1
  Mo  Mo27  1  5.99836066  6.23694350  10.74625651  1
  Mo  Mo28  1  4.49630553  2.31683916  8.56457589  1
  Mo  Mo29  1  0.09272004  1.88201231  9.79988849  1
  Mo  Mo30  1  2.85583502  2.48078295  13.04847964  1
  Mo  Mo31  1  1.42097192  5.33535694  12.81186282  1
  Mo  Mo32  1  3.65488100  4.96819872  7.73292186  1
  Mo  Mo33  1  0.94513876  10.38770705  1.91555371  1
  Mo  Mo34  1  3.96053672  9.57106622  1.45995461  1
  Mo  Mo35  1  6.35678104  7.45589251  3.17351520  1
  Mo  Mo36  1  0.33263580  12.26376173  3.66282450  1
  Mo  Mo37  1  2.67567658  11.76282515  4.72368805  1
  Mo  Mo38  1  3.82240929  9.64700602  3.93058975  1
  Mo  Mo39  1  5.42779935  12.32879909  3.87404200  1
  Mo  Mo40  1  6.19417772  11.94780926  1.10220943  1
  Mo  Mo41  1  6.46006632  8.18009092  6.04449250  1
  Mo  Mo42  1  3.17623585  7.46742051  2.83059457  1
  Mo  Mo43  1  0.70927557  8.10765619  0.51846093  1
  Mo  Mo44  1  2.99868883  11.62480694  1.96032523  1
  Mo  Mo45  1  1.75530365  8.71012056  5.84707682  1
  Mo  Mo46  1  4.94854850  10.20202788  6.27333464  1
  Mo  Mo47  1  5.29351458  10.84416007  12.43692990  1
  Mo  Mo48  1  4.39128261  7.88321277  12.47346997  1
  Mo  Mo49  1  4.03574175  9.95270146  8.57586558  1
  Mo  Mo50  1  1.62392819  7.29744959  8.70821412  1
  Mo  Mo51  1  0.62362087  10.90880025  10.66731803  1
  Mo  Mo52  1  6.85700271  8.34161194  8.70814461  1
  Mo  Mo53  1  4.42202393  12.66669546  7.74614778  1
  Mo  Mo54  1  4.37213879  7.82163083  9.36669998  1
  Mo  Mo55  1  2.30520195  8.15790872  11.08961403  1
  Mo  Mo56  1  0.15712827  6.63538916  10.93580813  1
  Mo  Mo57  1  2.92745555  11.54696070  10.45542533  1
  Mo  Mo58  1  1.87353263  13.28986256  8.28000022  1
  Mo  Mo59  1  5.42125590  12.42372384  10.26219984  1
  Mo  Mo60  1  1.88440528  10.04544175  13.03954321  1
  Mo  Mo61  1  1.28875246  13.11907744  11.95475982  1
  Mo  Mo62  1  3.52508431  7.32209428  6.76513620  1
  Mo  Mo63  1  2.11735817  11.18255291  7.31782466  1
  Mo  Mo64  1  12.17449672  1.56888970  4.26715559  1
  Mo  Mo65  1  10.34262772  3.59349765  4.70278673  1
  Mo  Mo66  1  7.18952730  0.84977612  3.21651929  1
  Mo  Mo67  1  7.54028220  1.30689341  1.03736073  1
  Mo  Mo68  1  8.28487554  5.81282050  3.89288794  1
  Mo  Mo69  1  7.65438057  2.60136519  4.77812084  1
  Mo  Mo70  1  8.92964894  5.14706634  6.22204945  1
  Mo  Mo71  1  12.15622668  5.61230686  3.75659744  1
  Mo  Mo72  1  12.75973364  3.73452446  5.47052542  1
  Mo  Mo73  1  9.37175403  5.41364007  1.22415199  1
  Mo  Mo74  1  9.52952175  1.14135100  5.51317205  1
  Mo  Mo75  1  12.63224056  3.85638759  1.90481013  1
  Mo  Mo76  1  9.27063335  2.03227342  2.97254480  1
  Mo  Mo77  1  6.58939633  5.89777617  1.37554506  1
  Mo  Mo78  1  11.61011147  1.83343784  6.53103151  1
  Mo  Mo79  1  8.55396140  5.96444194  9.17270993  1
  Mo  Mo80  1  10.84416007  4.12904802  7.72527625  1
  Mo  Mo81  1  7.50416909  3.69536304  12.61933238  1
  Mo  Mo82  1  12.13060892  -0.00082159  11.11185582  1
  Mo  Mo83  1  9.60841057  4.92981178  11.71923522  1
  Mo  Mo84  1  11.20598622  6.51849072  8.35663508  1
  Mo  Mo85  1  10.52661890  1.74993186  9.12771997  1
  Mo  Mo86  1  8.11059528  1.61805000  11.11473533  1
  Mo  Mo87  1  11.46524200  3.30432469  10.67953116  1
  Mo  Mo88  1  8.46489497  3.38024463  9.40719194  1
  Mo  Mo89  1  7.47851161  2.49012649  7.52000644  1
  Mo  Mo90  1  12.21878170  4.83604877  13.14131923  1
  Mo  Mo91  1  7.49949236  0.30018265  8.91485419  1
  Mo  Mo92  1  13.32759416  4.45509866  9.07949303  1
  Mo  Mo93  1  10.49087318  2.47516293  12.98761262  1
  Mo  Mo94  1  12.30437285  1.57994109  13.09097733  1
  Mo  Mo95  1  7.56821351  12.10141658  5.04483358  1
  Mo  Mo96  1  12.27061300  6.96134051  1.39462930  1
  Mo  Mo97  1  6.89813015  10.09806740  4.01036229  1
  Mo  Mo98  1  10.51192343  10.24889449  4.91414324  1
  Mo  Mo99  1  9.70508289  12.74781840  3.67075806  1
  Mo  Mo100  1  8.85761138  8.39566742  3.89719729  1
  Mo  Mo101  1  12.39194987  8.56914340  3.97725778  1
  Mo  Mo102  1  11.28720844  12.57584175  5.80407273  1
  Mo  Mo103  1  8.66442561  11.73968972  1.50243245  1
  Mo  Mo104  1  10.16608357  9.44524128  1.37098748  1
  Mo  Mo105  1  11.72201544  13.15680904  1.61870534  1
  Mo  Mo106  1  7.52972729  9.20917057  1.18400756  1
  Mo  Mo107  1  13.27596145  10.92141055  5.70802596  1
  Mo  Mo108  1  10.15804078  6.98179500  5.25592200  1
  Mo  Mo109  1  12.49581105  7.95249989  6.61237289  1
  Mo  Mo110  1  12.46701588  11.32484075  0.05195015  1
  Mo  Mo111  1  12.97271857  8.66394900  9.10807968  1
  Mo  Mo112  1  11.78119447  9.08394138  11.99993844  1
  Mo  Mo113  1  8.97349703  8.69595135  6.71792206  1
  Mo  Mo114  1  11.11036641  10.87543758  10.63752993  1
  Mo  Mo115  1  8.47541017  7.14039679  12.08969992  1
  Mo  Mo116  1  9.44688955  12.42034786  10.23529126  1
  Mo  Mo117  1  6.83341054  10.89420408  9.38221958  1
  Mo  Mo118  1  10.77326439  10.14950152  7.53138549  1
  Mo  Mo119  1  10.91624728  7.04429044  10.54955574  1
  Mo  Mo120  1  10.16806944  13.08740276  12.67592978  1
  Mo  Mo121  1  6.87129107  8.61903847  11.21174525  1
  Mo  Mo122  1  9.22957542  9.49049933  9.50991125  1
  Mo  Mo123  1  7.68230195  10.78259799  7.05229351  1
  Mo  Mo124  1  7.50989834  12.80362144  12.39324068  1
  Mo  Mo125  1  9.30557480  10.65331763  12.56313216  1
  Mo  Mo126  1  11.86658704  13.08313313  8.68300346  1
  Mo  Mo127  1  10.60436585  7.26151521  13.10408410  1
