# generated using pymatgen
data_Mo
_symmetry_space_group_name_H-M   'P 1'
_cell_length_a   13.34506985
_cell_length_b   13.34506985
_cell_length_c   13.34506985
_cell_angle_alpha   90.00000000
_cell_angle_beta   90.00000000
_cell_angle_gamma   90.00000000
_symmetry_Int_Tables_number   1
_chemical_formula_structural   Mo
_chemical_formula_sum   Mo128
_cell_volume   2376.63535615
_cell_formula_units_Z   128
loop_
 _symmetry_equiv_pos_site_id
 _symmetry_equiv_pos_as_xyz
  1  'x, y, z'
loop_
 _atom_site_type_symbol
 _atom_site_label
 _atom_site_symmetry_multiplicity
 _atom_site_fract_x
 _atom_site_fract_y
 _atom_site_fract_z
 _atom_site_occupancy
  Mo  Mo0  1  2.02973151  0.62065596  2.54863032  1
  Mo  Mo1  1  3.20904248  2.11677234  6.63680906  1
  Mo  Mo2  1  3.53155826  5.61364732  0.61567936  1
  Mo  Mo3  1  4.97970686  1.79756304  4.24459607  1
  Mo  Mo4  1  5.60931812  6.38520882  2.11420063  1
  Mo  Mo5  1  0.58176760  5.94375907  4.26719531  1
  Mo  Mo6  1  3.76022166  3.42865030  2.23061254  1
  Mo  Mo7  1  0.58308622  2.55842067  1.02349934  1
  Mo  Mo8  1  4.35264744  0.92445191  1.26981716  1
  Mo  Mo9  1  2.06614250  3.15861122  3.93861268  1
  Mo  Mo10  1  5.15355022  5.07529688  6.05060899  1
  Mo  Mo11  1  6.46623246  4.45478092  3.83382806  1
  Mo  Mo12  1  2.11585884  5.46629551  6.11153559  1
  Mo  Mo13  1  2.94017507  5.46139040  3.49701399  1
  Mo  Mo14  1  0.75978626  4.81827520  1.22887837  1
  Mo  Mo15  1  6.65285492  3.54671048  1.29441220  1
  Mo  Mo16  1  5.54123244  0.69862930  6.48145418  1
  Mo  Mo17  1  4.26256822  3.57159347  12.83678553  1
  Mo  Mo18  1  4.01077932  5.33824639  11.27529320  1
  Mo  Mo19  1  3.32898924  1.13432101  9.03353992  1
  Mo  Mo20  1  5.28449872  3.20386928  7.96526906  1
  Mo  Mo21  1  4.12653589  1.21895894  11.90858826  1
  Mo  Mo22  1  0.71415486  0.90298660  8.33849412  1
  Mo  Mo23  1  0.55399913  0.38304819  11.28561975  1
  Mo  Mo24  1  6.53737637  6.30160354  7.70394797  1
  Mo  Mo25  1  6.48794798  5.97014140  12.64703532  1
  Mo  Mo26  1  1.31514472  5.18872997  10.91962326  1
  Mo  Mo27  1  6.19401885  4.54484028  10.39376396  1
  Mo  Mo28  1  1.16628364  3.23853270  7.52154549  1
  Mo  Mo29  1  4.06156804  6.02522953  8.17538440  1
  Mo  Mo30  1  5.81283043  2.07378811  10.11961413  1
  Mo  Mo31  1  2.99455821  4.24248111  9.37213135  1
  Mo  Mo32  1  1.91504731  2.87497884  11.35681331  1
  Mo  Mo33  1  3.56419609  7.59680016  1.92938532  1
  Mo  Mo34  1  2.96544531  9.04352886  4.04352638  1
  Mo  Mo35  1  2.39631382  11.64277909  4.09334201  1
  Mo  Mo36  1  5.65865714  7.81669593  4.39069678  1
  Mo  Mo37  1  4.87295623  12.71703736  3.45442693  1
  Mo  Mo38  1  3.92223915  10.45671615  6.00924325  1
  Mo  Mo39  1  0.94790210  8.05037367  2.78625994  1
  Mo  Mo40  1  3.22451243  13.12612730  5.93480278  1
  Mo  Mo41  1  5.39384091  12.18124869  0.50396902  1
  Mo  Mo42  1  1.05634569  13.30128134  0.21992258  1
  Mo  Mo43  1  1.79145647  10.54657693  1.46807684  1
  Mo  Mo44  1  4.80040234  9.82176289  2.45052817  1
  Mo  Mo45  1  3.26307809  7.52799958  5.76840644  1
  Mo  Mo46  1  1.17378031  8.94514869  6.40966485  1
  Mo  Mo47  1  0.81134351  13.29591948  5.33020360  1
  Mo  Mo48  1  6.49133390  10.51827823  4.84047727  1
  Mo  Mo49  1  0.31390305  7.57522365  0.45195601  1
  Mo  Mo50  1  3.75540592  10.02161127  0.16580256  1
  Mo  Mo51  1  3.62254105  9.92986391  10.70634045  1
  Mo  Mo52  1  2.99893706  12.30645801  10.28056917  1
  Mo  Mo53  1  2.03810196  8.09419197  11.80224473  1
  Mo  Mo54  1  5.17768851  12.00212290  7.92202666  1
  Mo  Mo55  1  0.65933383  9.42811312  8.76458314  1
  Mo  Mo56  1  5.94484137  12.49501670  10.73314974  1
  Mo  Mo57  1  5.57394971  7.29058840  10.02846253  1
  Mo  Mo58  1  2.59735372  8.03912369  9.24018991  1
  Mo  Mo59  1  4.64312116  8.75600417  7.88315319  1
  Mo  Mo60  1  3.01405949  12.13765877  12.58745911  1
  Mo  Mo61  1  2.71362662  10.79133583  7.89576349  1
  Mo  Mo62  1  0.69298148  9.98457473  11.90253135  1
  Mo  Mo63  1  0.14714627  11.36267164  6.91050214  1
  Mo  Mo64  1  4.69251976  8.06272580  12.02406680  1
  Mo  Mo65  1  11.78685421  1.18723461  2.91898580  1
  Mo  Mo66  1  11.50535665  6.04502869  2.49034493  1
  Mo  Mo67  1  9.52303787  4.59703896  3.79130058  1
  Mo  Mo68  1  12.34875712  4.87378036  6.09753518  1
  Mo  Mo69  1  9.29289499  4.41537126  6.52091348  1
  Mo  Mo70  1  9.19187361  2.26716254  1.67444881  1
  Mo  Mo71  1  11.45829145  3.82152558  1.45040256  1
  Mo  Mo72  1  12.91105720  3.52007991  3.81837797  1
  Mo  Mo73  1  7.68313601  6.44844896  4.57619722  1
  Mo  Mo74  1  8.32200144  6.48623020  2.07415550  1
  Mo  Mo75  1  7.67221371  2.15278616  3.96642484  1
  Mo  Mo76  1  9.32512572  0.47847735  6.59231556  1
  Mo  Mo77  1  10.27600166  2.48585686  4.41031721  1
  Mo  Mo78  1  9.06803454  4.70031431  0.54783895  1
  Mo  Mo79  1  7.25509091  0.33489969  1.67205583  1
  Mo  Mo80  1  12.05852171  0.87096241  0.23570134  1
  Mo  Mo81  1  10.57815232  6.65752172  5.65660176  1
  Mo  Mo82  1  9.03492010  1.69751473  9.21785876  1
  Mo  Mo83  1  9.44057447  4.84303904  11.29544982  1
  Mo  Mo84  1  10.48660355  6.59835262  12.75883999  1
  Mo  Mo85  1  7.14604660  1.13005138  12.86836092  1
  Mo  Mo86  1  11.91414871  1.96784176  7.00142536  1
  Mo  Mo87  1  11.23130611  0.45616805  9.74153360  1
  Mo  Mo88  1  12.58775699  2.83200454  10.69740402  1
  Mo  Mo89  1  7.62050156  3.46297612  12.16744687  1
  Mo  Mo90  1  12.40108488  4.88155506  12.50325808  1
  Mo  Mo91  1  11.89141045  6.61319702  9.96362376  1
  Mo  Mo92  1  10.58063466  3.73308470  8.92328422  1
  Mo  Mo93  1  13.22492450  4.36014412  9.02677802  1
  Mo  Mo94  1  7.97109760  3.95198754  8.84166482  1
  Mo  Mo95  1  7.33559822  2.12146893  7.33376129  1
  Mo  Mo96  1  8.03306678  6.45261929  10.26984546  1
  Mo  Mo97  1  9.03458250  10.46436176  1.27289526  1
  Mo  Mo98  1  11.43356732  9.59159022  6.49889015  1
  Mo  Mo99  1  10.44976559  9.27444623  4.20899928  1
  Mo  Mo100  1  9.20287535  11.41986479  4.99355832  1
  Mo  Mo101  1  11.34211785  13.10616927  4.54021319  1
  Mo  Mo102  1  13.03626652  10.31472620  3.89268935  1
  Mo  Mo103  1  12.49849198  8.15466181  4.43525978  1
  Mo  Mo104  1  13.15879491  12.64266639  2.25307277  1
  Mo  Mo105  1  7.33001792  9.21269549  2.86740273  1
  Mo  Mo106  1  9.32721089  12.92217809  3.06111476  1
  Mo  Mo107  1  11.86837432  10.00969603  1.37292371  1
  Mo  Mo108  1  10.33806021  8.16958565  1.79251892  1
  Mo  Mo109  1  7.34332327  8.09059754  6.36647210  1
  Mo  Mo110  1  7.26406706  13.28360706  4.96941010  1
  Mo  Mo111  1  9.72762256  13.12374425  0.52751750  1
  Mo  Mo112  1  8.57899333  9.84363729  7.58202526  1
  Mo  Mo113  1  7.24837866  9.68952358  9.62397982  1
  Mo  Mo114  1  11.58369936  8.90686105  8.99905522  1
  Mo  Mo115  1  9.42030864  7.29311046  7.38313011  1
  Mo  Mo116  1  11.09229496  12.09526037  11.93162439  1
  Mo  Mo117  1  11.31352127  11.99934268  7.29392467  1
  Mo  Mo118  1  12.33684188  8.44287163  11.51002345  1
  Mo  Mo119  1  9.34121129  8.49675831  9.74158325  1
  Mo  Mo120  1  8.29323607  11.31431562  12.17936211  1
  Mo  Mo121  1  9.76723081  10.74566074  10.23221315  1
  Mo  Mo122  1  10.29854133  9.34517311  12.69608639  1
  Mo  Mo123  1  13.13516302  12.29920957  9.33771616  1
  Mo  Mo124  1  7.81328023  12.23010118  8.86848404  1
  Mo  Mo125  1  7.68733614  8.28688127  13.35112676  1
  Mo  Mo126  1  12.53979815  7.11922738  7.52302496  1
  Mo  Mo127  1  9.10454482  13.29343714  11.15614079  1
