# generated using pymatgen
data_Mo
_symmetry_space_group_name_H-M   'P 1'
_cell_length_a   13.70252708
_cell_length_b   13.70252708
_cell_length_c   13.70252708
_cell_angle_alpha   90.00000000
_cell_angle_beta   90.00000000
_cell_angle_gamma   90.00000000
_symmetry_Int_Tables_number   1
_chemical_formula_structural   Mo
_chemical_formula_sum   Mo128
_cell_volume   2572.77618306
_cell_formula_units_Z   128
loop_
 _symmetry_equiv_pos_site_id
 _symmetry_equiv_pos_as_xyz
  1  'x, y, z'
loop_
 _atom_site_type_symbol
 _atom_site_label
 _atom_site_symmetry_multiplicity
 _atom_site_fract_x
 _atom_site_fract_y
 _atom_site_fract_z
 _atom_site_occupancy
  Mo  Mo0  1  3.67785756  2.49500181  4.62241843  1
  Mo  Mo1  1  4.03949505  2.34583292  1.90334059  1
  Mo  Mo2  1  6.28808968  4.90895018  5.45661437  1
  Mo  Mo3  1  5.03038635  4.61968785  2.97227671  1
  Mo  Mo4  1  0.88863370  3.17911536  0.36665679  1
  Mo  Mo5  1  1.45435445  0.72490737  5.33110717  1
  Mo  Mo6  1  2.64483596  5.38668184  4.37687510  1
  Mo  Mo7  1  5.81030837  2.77988529  6.69965203  1
  Mo  Mo8  1  6.40025181  2.24142562  3.84116587  1
  Mo  Mo9  1  6.87912534  0.34034992  0.22726138  1
  Mo  Mo10  1  2.02375403  2.98176919  3.17304852  1
  Mo  Mo11  1  1.07211352  5.29923390  6.88933273  1
  Mo  Mo12  1  2.21913419  0.13873312  2.60452273  1
  Mo  Mo13  1  3.00771462  5.67143624  1.57554238  1
  Mo  Mo14  1  6.32042962  3.54142805  1.03426277  1
  Mo  Mo15  1  0.44159571  0.61506474  0.18455219  1
  Mo  Mo16  1  3.63295696  4.85226342  6.97682039  1
  Mo  Mo17  1  0.84329224  2.17311157  11.32444357  1
  Mo  Mo18  1  2.05862596  3.72602492  9.21471115  1
  Mo  Mo19  1  4.80354995  4.13558154  9.66290294  1
  Mo  Mo20  1  4.02111579  6.32816460  12.73292434  1
  Mo  Mo21  1  4.41186619  1.39914717  12.51725848  1
  Mo  Mo22  1  5.58420675  5.93666950  8.20616544  1
  Mo  Mo23  1  3.34089455  1.25367200  7.57894716  1
  Mo  Mo24  1  5.81946325  3.76924746  12.49730046  1
  Mo  Mo25  1  3.07865995  5.78780843  10.43119768  1
  Mo  Mo26  1  0.44618109  5.49996599  9.28304506  1
  Mo  Mo27  1  6.45701800  1.67287004  10.63693417  1
  Mo  Mo28  1  3.17106265  3.98948083  12.83966504  1
  Mo  Mo29  1  1.32214492  5.14663938  12.46592365  1
  Mo  Mo30  1  5.77794856  -0.01564104  7.98611080  1
  Mo  Mo31  1  6.00592684  6.91067094  10.92548159  1
  Mo  Mo32  1  5.44397429  8.16381669  4.28172197  1
  Mo  Mo33  1  1.27796917  11.76312303  0.04406097  1
  Mo  Mo34  1  3.12480172  7.98856336  6.27258000  1
  Mo  Mo35  1  0.80007169  12.02585409  4.28027228  1
  Mo  Mo36  1  6.47890233  10.96539765  4.37423389  1
  Mo  Mo37  1  3.43638527  11.32583368  3.97577830  1
  Mo  Mo38  1  0.65611374  9.40131376  4.35530851  1
  Mo  Mo39  1  1.67443888  8.23975649  0.01083373  1
  Mo  Mo40  1  4.22655441  10.17720446  0.98564462  1
  Mo  Mo41  1  2.43904982  8.26800554  2.96591199  1
  Mo  Mo42  1  5.11079437  10.06003792  5.78451188  1
  Mo  Mo43  1  0.29911425  7.33259955  5.70128392  1
  Mo  Mo44  1  4.85010875  8.24997381  2.01020044  1
  Mo  Mo45  1  5.52446174  13.68654079  3.04580368  1
  Mo  Mo46  1  4.52067220  12.49908774  6.20488158  1
  Mo  Mo47  1  3.46635210  9.06278190  11.80224473  1
  Mo  Mo48  1  2.45843194  10.53366875  7.20733065  1
  Mo  Mo49  1  -0.12548834  10.04037777  7.23517260  1
  Mo  Mo50  1  3.07822306  11.12347318  9.84605012  1
  Mo  Mo51  1  0.18993291  10.41133894  12.11045230  1
  Mo  Mo52  1  3.66052089  11.49473222  12.19375969  1
  Mo  Mo53  1  1.85972088  7.46767867  8.80720991  1
  Mo  Mo54  1  1.19530718  9.76745918  9.37299520  1
  Mo  Mo55  1  1.97034396  13.01213816  7.78139703  1
  Mo  Mo56  1  4.33593632  8.56818025  8.67033358  1
  Mo  Mo57  1  2.20220462  13.26652855  12.09059356  1
  Mo  Mo58  1  5.56247136  9.45824875  12.30784812  1
  Mo  Mo59  1  5.53498687  10.50983827  9.39240711  1
  Mo  Mo60  1  5.96694414  12.56362863  12.09535966  1
  Mo  Mo61  1  3.87931450  13.80470027  10.18524725  1
  Mo  Mo62  1  0.76813884  7.89763021  11.33576305  1
  Mo  Mo63  1  0.64252837  12.17151791  10.17104825  1
  Mo  Mo64  1  7.79659889  6.79386186  5.80683309  1
  Mo  Mo65  1  10.58490429  3.41638753  1.07665124  1
  Mo  Mo66  1  11.18920559  3.10518129  3.34759687  1
  Mo  Mo67  1  13.73708127  2.87718316  5.22746443  1
  Mo  Mo68  1  6.95952343  6.53827002  2.29848969  1
  Mo  Mo69  1  11.23200116  6.06603923  6.13488946  1
  Mo  Mo70  1  7.98250644  1.65862140  1.71957778  1
  Mo  Mo71  1  8.83636254  4.99548462  2.58256890  1
  Mo  Mo72  1  11.09884834  5.99059590  2.24523850  1
  Mo  Mo73  1  13.60720515  1.72765036  2.36335825  1
  Mo  Mo74  1  9.58359708  4.42945110  5.13838808  1
  Mo  Mo75  1  12.98244935  5.24090880  4.25419776  1
  Mo  Mo76  1  8.83729590  1.55771916  4.06711855  1
  Mo  Mo77  1  11.51002345  0.12459172  3.35786384  1
  Mo  Mo78  1  6.92366849  0.04034610  5.54423111  1
  Mo  Mo79  1  11.54815222  1.82685467  5.82975007  1
  Mo  Mo80  1  13.80549462  6.24115356  2.29640453  1
  Mo  Mo81  1  8.38130956  4.81876174  0.27421239  1
  Mo  Mo82  1  8.77011380  5.53556278  7.85807161  1
  Mo  Mo83  1  12.43990871  2.78519750  12.69122100  1
  Mo  Mo84  1  10.20987208  3.20541826  11.24788815  1
  Mo  Mo85  1  8.39489293  6.70980977  10.75330636  1
  Mo  Mo86  1  8.46672197  1.96597504  12.52897514  1
  Mo  Mo87  1  11.70116377  5.60685563  12.99079002  1
  Mo  Mo88  1  12.35193452  3.71728708  10.35573448  1
  Mo  Mo89  1  11.95724216  0.39544897  9.74062010  1
  Mo  Mo90  1  10.37618898  2.84002747  8.04435647  1
  Mo  Mo91  1  13.89267446  1.73640806  9.06859058  1
  Mo  Mo92  1  7.85504315  4.27373876  10.86471386  1
  Mo  Mo93  1  12.61506275  3.83796861  7.46671552  1
  Mo  Mo94  1  7.64848252  9.32686336  6.31413441  1
  Mo  Mo95  1  10.69988636  8.52180018  1.82188006  1
  Mo  Mo96  1  7.68698861  8.97669429  3.09011844  1
  Mo  Mo97  1  12.65726256  12.61009807  1.77967032  1
  Mo  Mo98  1  9.92634892  13.42222103  0.73619905  1
  Mo  Mo99  1  11.64923318  11.17570165  4.46333010  1
  Mo  Mo100  1  12.29265619  7.76334544  4.00710546  1
  Mo  Mo101  1  13.23942138  9.82835599  2.25797787  1
  Mo  Mo102  1  9.61494410  9.58245521  4.34270815  1
  Mo  Mo103  1  10.92716958  8.64373281  6.20650999  1
  Mo  Mo104  1  9.90358088  11.08752887  2.23578574  1
  Mo  Mo105  1  8.00518512  12.52212387  3.11157581  1
  Mo  Mo106  1  8.33011374  8.74478398  0.71995063  1
  Mo  Mo107  1  9.56838529  12.70244119  5.38215405  1
  Mo  Mo108  1  6.98033539  11.29157737  0.82467368  1
  Mo  Mo109  1  11.28849926  10.75707952  0.32189321  1
  Mo  Mo110  1  9.50412243  10.13778487  8.43887010  1
  Mo  Mo111  1  11.48847672  7.69600447  11.84017492  1
  Mo  Mo112  1  12.64236851  12.62588576  12.41230507  1
  Mo  Mo113  1  10.09449283  7.71848456  8.90479574  1
  Mo  Mo114  1  10.08436487  11.95565346  10.46317024  1
  Mo  Mo115  1  7.65783598  9.22500791  9.72597428  1
  Mo  Mo116  1  9.95875837  13.37267349  7.90692410  1
  Mo  Mo117  1  11.62818292  10.19815542  10.00145465  1
  Mo  Mo118  1  13.49827999  12.69429911  6.69892718  1
  Mo  Mo119  1  11.14343120  11.41082907  7.08305469  1
  Mo  Mo120  1  12.86558069  8.17975333  13.76220257  1
  Mo  Mo121  1  12.91691552  7.58621546  8.79108462  1
  Mo  Mo122  1  7.61576526  12.06884825  9.92476022  1
  Mo  Mo123  1  10.62094789  14.00874877  12.12872234  1
  Mo  Mo124  1  9.04680555  11.62927515  12.67821353  1
  Mo  Mo125  1  9.75990293  7.09984525  13.66787358  1
  Mo  Mo126  1  7.26645011  6.89650174  13.42132739  1
  Mo  Mo127  1  7.64141281  11.71109314  7.18104762  1
