# generated using pymatgen
data_Mo
_symmetry_space_group_name_H-M   'P 1'
_cell_length_a   13.70252708
_cell_length_b   13.70252708
_cell_length_c   13.70252708
_cell_angle_alpha   90.00000000
_cell_angle_beta   90.00000000
_cell_angle_gamma   90.00000000
_symmetry_Int_Tables_number   1
_chemical_formula_structural   Mo
_chemical_formula_sum   Mo128
_cell_volume   2572.77618306
_cell_formula_units_Z   128
loop_
 _symmetry_equiv_pos_site_id
 _symmetry_equiv_pos_as_xyz
  1  'x, y, z'
loop_
 _atom_site_type_symbol
 _atom_site_label
 _atom_site_symmetry_multiplicity
 _atom_site_fract_x
 _atom_site_fract_y
 _atom_site_fract_z
 _atom_site_occupancy
  Mo  Mo0  1  1.73997270  6.09712808  5.72721943  1
  Mo  Mo1  1  0.92875232  0.15632300  5.06387810  1
  Mo  Mo2  1  5.10608784  5.39896447  5.73762540  1
  Mo  Mo3  1  6.03487095  6.55452439  2.08777859  1
  Mo  Mo4  1  6.70415996  0.42104589  6.22432328  1
  Mo  Mo5  1  3.76917795  1.64559407  2.18159125  1
  Mo  Mo6  1  5.34439266  2.20122161  4.33102128  1
  Mo  Mo7  1  2.88934663  2.96061963  4.58706988  1
  Mo  Mo8  1  0.60884995  3.88102235  5.32111823  1
  Mo  Mo9  1  6.78246295  2.70704345  6.18864706  1
  Mo  Mo10  1  4.75212575  4.57527379  0.16054695  1
  Mo  Mo11  1  1.74243519  1.19504902  2.72103393  1
  Mo  Mo12  1  4.41134986  4.84704058  3.16876896  1
  Mo  Mo13  1  1.63366890  5.32127710  2.34358888  1
  Mo  Mo14  1  3.95886859  0.39305997  5.97719125  1
  Mo  Mo15  1  3.39778982  3.77253408  6.87059602  1
  Mo  Mo16  1  2.90721949  4.68204428  11.09457872  1
  Mo  Mo17  1  5.01034888  2.19350649  10.90929672  1
  Mo  Mo18  1  2.50820786  5.62943501  8.32534764  1
  Mo  Mo19  1  1.71850541  3.15908783  9.11500045  1
  Mo  Mo20  1  5.72111286  5.26134343  11.74564734  1
  Mo  Mo21  1  6.74501931  3.70228380  8.35259383  1
  Mo  Mo22  1  5.30683980  -0.11924773  10.48739790  1
  Mo  Mo23  1  4.56207766  5.76834687  9.06826291  1
  Mo  Mo24  1  2.72128216  0.93948597  10.86799055  1
  Mo  Mo25  1  0.54174529  1.97818816  7.24651194  1
  Mo  Mo26  1  2.92893502  2.68316332  12.73163353  1
  Mo  Mo27  1  0.64949680  3.72850726  12.26594619  1
  Mo  Mo28  1  0.62890032  1.41963145  12.89238999  1
  Mo  Mo29  1  2.21324607  5.82204488  13.32670052  1
  Mo  Mo30  1  0.31250102  1.35000673  10.32177605  1
  Mo  Mo31  1  5.49217144  13.20536365  3.40077856  1
  Mo  Mo32  1  3.87315829  7.79804858  2.13139830  1
  Mo  Mo33  1  4.90248617  10.90254475  4.32342531  1
  Mo  Mo34  1  6.79920386  8.51042112  2.64254228  1
  Mo  Mo35  1  1.60325524  7.99756929  1.02260569  1
  Mo  Mo36  1  5.72918544  11.87115454  6.19034498  1
  Mo  Mo37  1  4.27428488  7.92951341  5.79136314  1
  Mo  Mo38  1  5.19973171  13.55974277  0.26393947  1
  Mo  Mo39  1  2.71432167  11.63155891  5.46844025  1
  Mo  Mo40  1  3.33954415  12.73818691  2.19761725  1
  Mo  Mo41  1  1.90854358  9.12394681  5.21798189  1
  Mo  Mo42  1  4.95047480  11.10411091  1.45985532  1
  Mo  Mo43  1  1.49739826  11.26188856  1.07737609  1
  Mo  Mo44  1  0.56319769  7.20198865  3.59702258  1
  Mo  Mo45  1  3.44263085  9.86028884  7.02917794  1
  Mo  Mo46  1  3.07199735  11.02596679  12.04223755  1
  Mo  Mo47  1  6.37037434  11.86241670  12.06686238  1
  Mo  Mo48  1  0.83831465  9.25567972  12.20408623  1
  Mo  Mo49  1  0.94512883  11.04671916  7.49997890  1
  Mo  Mo50  1  1.47503732  8.00291129  7.61278644  1
  Mo  Mo51  1  4.33016736  13.22373298  8.00125309  1
  Mo  Mo52  1  1.64203935  13.35410557  8.64129018  1
  Mo  Mo53  1  2.83220312  13.11401347  13.24458465  1
  Mo  Mo54  1  0.78907392  11.81952183  10.66136041  1
  Mo  Mo55  1  5.82962099  7.52930032  7.97563532  1
  Mo  Mo56  1  1.66491662  6.97792255  10.11792613  1
  Mo  Mo57  1  2.31739521  9.88575766  9.95011982  1
  Mo  Mo58  1  5.23900236  10.92548159  9.72268766  1
  Mo  Mo59  1  5.84634205  7.98653776  10.62442317  1
  Mo  Mo60  1  3.83036272  8.04925165  11.76322232  1
  Mo  Mo61  1  5.67963790  7.39470775  13.55656537  1
  Mo  Mo62  1  12.51666272  4.32523246  3.20164510  1
  Mo  Mo63  1  12.07619598  1.64331031  3.55583556  1
  Mo  Mo64  1  10.31264103  0.47325748  2.35502751  1
  Mo  Mo65  1  11.55917382  3.17900614  6.71063391  1
  Mo  Mo66  1  9.49242563  2.58685838  4.13978166  1
  Mo  Mo67  1  8.00560215  4.76959151  1.65287229  1
  Mo  Mo68  1  10.61240863  3.51727983  2.05669967  1
  Mo  Mo69  1  10.92081479  6.82487128  2.95364922  1
  Mo  Mo70  1  13.34387832  3.10434723  1.03589119  1
  Mo  Mo71  1  7.61785042  2.01233525  2.88931685  1
  Mo  Mo72  1  9.74438333  4.67220428  5.04823935  1
  Mo  Mo73  1  10.66543146  5.05881413  -0.32426037  1
  Mo  Mo74  1  6.99380954  4.32418988  4.09998476  1
  Mo  Mo75  1  13.17686636  5.81532270  1.19719376  1
  Mo  Mo76  1  7.42092128  5.88860143  5.95518777  1
  Mo  Mo77  1  12.33555106  0.47459695  6.39516797  1
  Mo  Mo78  1  9.16548135  0.85582707  6.34958225  1
  Mo  Mo79  1  9.05703280  2.19439021  0.24136704  1
  Mo  Mo80  1  13.08690629  6.40246606  12.15582951  1
  Mo  Mo81  1  11.61428181  3.07134201  9.34962147  1
  Mo  Mo82  1  13.62845399  5.46358479  9.92018278  1
  Mo  Mo83  1  7.73455028  2.64084435  11.39404844  1
  Mo  Mo84  1  7.94766429  5.97940550  12.84592055  1
  Mo  Mo85  1  10.27709389  3.35545100  11.35224580  1
  Mo  Mo86  1  7.04656427  1.14079496  9.04519699  1
  Mo  Mo87  1  13.05185563  6.05529566  7.48180816  1
  Mo  Mo88  1  10.17472212  5.68867362  7.60120880  1
  Mo  Mo89  1  11.76143503  1.21917738  13.58555913  1
  Mo  Mo90  1  9.64677765  5.85224009  10.91654516  1
  Mo  Mo91  1  7.36871266  5.58451456  10.08049242  1
  Mo  Mo92  1  8.94772039  3.54666083  7.69861590  1
  Mo  Mo93  1  7.52723501  10.08019454  0.78288197  1
  Mo  Mo94  1  11.04850645  8.98523354  3.03313380  1
  Mo  Mo95  1  13.06317511  9.07350562  0.67063047  1
  Mo  Mo96  1  8.85215023  11.01127132  6.28383991  1
  Mo  Mo97  1  13.57980009  11.47397985  3.04986479  1
  Mo  Mo98  1  7.45348960  10.72629848  3.87169867  1
  Mo  Mo99  1  10.77515097  13.23435740  4.77167668  1
  Mo  Mo100  1  9.91321237  10.94315586  1.57946448  1
  Mo  Mo101  1  8.13817906  7.06418889  3.73823804  1
  Mo  Mo102  1  11.00729958  10.60228068  4.85285919  1
  Mo  Mo103  1  12.27071229  9.07762631  6.24307985  1
  Mo  Mo104  1  9.12561494  7.64429233  0.96362624  1
  Mo  Mo105  1  9.81793016  8.27369507  6.43093356  1
  Mo  Mo106  1  13.73976220  11.70731998  5.53223644  1
  Mo  Mo107  1  8.54780519  13.09246674  4.20029123  1
  Mo  Mo108  1  13.09484979  13.97846420  1.96333383  1
  Mo  Mo109  1  7.44267652  13.08134585  1.43137789  1
  Mo  Mo110  1  7.12015081  8.77032231  5.58684796  1
  Mo  Mo111  1  12.10856572  6.82608266  5.02384289  1
  Mo  Mo112  1  10.70782985  12.39492868  13.36989327  1
  Mo  Mo113  1  9.20174340  13.95205208  10.83800386  1
  Mo  Mo114  1  13.02593998  11.90977978  13.71702395  1
  Mo  Mo115  1  9.32752863  12.96964046  8.70355725  1
  Mo  Mo116  1  10.10342926  8.70931628  8.62218608  1
  Mo  Mo117  1  10.08108818  8.11116126  12.39314139  1
  Mo  Mo118  1  12.48737109  12.08235219  8.95354893  1
  Mo  Mo119  1  12.55121692  9.98219168  11.80442919  1
  Mo  Mo120  1  8.77923889  11.31501067  12.15165917  1
  Mo  Mo121  1  12.42243302  7.88114746  9.71869606  1
  Mo  Mo122  1  7.77008748  11.53742850  9.69095340  1
  Mo  Mo123  1  10.89023233  10.53585321  10.16906238  1
  Mo  Mo124  1  7.32488444  9.51814269  8.33427414  1
  Mo  Mo125  1  10.91724021  11.36376387  7.25473345  1
  Mo  Mo126  1  7.95120908  8.61872073  12.45500135  1
  Mo  Mo127  1  11.92149644  13.64275228  10.89261538  1
