# generated using pymatgen
data_Mo
_symmetry_space_group_name_H-M   'P 1'
_cell_length_a   13.70252708
_cell_length_b   13.70252708
_cell_length_c   13.70252708
_cell_angle_alpha   90.00000000
_cell_angle_beta   90.00000000
_cell_angle_gamma   90.00000000
_symmetry_Int_Tables_number   1
_chemical_formula_structural   Mo
_chemical_formula_sum   Mo128
_cell_volume   2572.77618306
_cell_formula_units_Z   128
loop_
 _symmetry_equiv_pos_site_id
 _symmetry_equiv_pos_as_xyz
  1  'x, y, z'
loop_
 _atom_site_type_symbol
 _atom_site_label
 _atom_site_symmetry_multiplicity
 _atom_site_fract_x
 _atom_site_fract_y
 _atom_site_fract_z
 _atom_site_occupancy
  Mo  Mo0  1  4.58424994  3.17175770  1.11240689  1
  Mo  Mo1  1  2.41594418  2.50188286  3.57946746  1
  Mo  Mo2  1  2.05313502  3.58054976  1.04064736  1
  Mo  Mo3  1  1.12249513  6.44927310  3.44030737  1
  Mo  Mo4  1  6.39029265  5.22789140  0.89048057  1
  Mo  Mo5  1  2.25585299  1.01153445  0.44648096  1
  Mo  Mo6  1  4.91127366  4.63148394  5.89259304  1
  Mo  Mo7  1  4.71919997  1.92952433  4.10540619  1
  Mo  Mo8  1  3.45206375  4.79096944  3.05331028  1
  Mo  Mo9  1  5.70896925  5.15495026  3.66969562  1
  Mo  Mo10  1  3.33142193  3.09130004  6.20340210  1
  Mo  Mo11  1  0.92865005  3.89050489  5.00782682  1
  Mo  Mo12  1  1.21555316  1.22742869  5.74693915  1
  Mo  Mo13  1  1.21172043  6.78874824  1.00641090  1
  Mo  Mo14  1  4.09603287  0.80609187  2.14003685  1
  Mo  Mo15  1  6.73163452  2.03299827  5.96976408  1
  Mo  Mo16  1  3.14834425  0.07821492  5.16423422  1
  Mo  Mo17  1  2.22277827  5.99944296  6.78618646  1
  Mo  Mo18  1  3.11172475  1.60959018  9.55850557  1
  Mo  Mo19  1  0.17292093  1.65271342  9.55714525  1
  Mo  Mo20  1  6.66700427  4.05096347  8.34911855  1
  Mo  Mo21  1  4.86337439  6.20061195  10.78289587  1
  Mo  Mo22  1  0.32239663  3.60274190  12.45241971  1
  Mo  Mo23  1  4.18671778  4.19844437  8.85054167  1
  Mo  Mo24  1  1.70864555  3.81364166  8.05278650  1
  Mo  Mo25  1  2.07983509  5.33993438  10.06798142  1
  Mo  Mo26  1  4.42498288  3.28283754  11.74525016  1
  Mo  Mo27  1  6.34454806  6.63750412  7.55148253  1
  Mo  Mo28  1  2.82453765  0.71425018  7.59552920  1
  Mo  Mo29  1  2.15382874  1.74606934  12.01215156  1
  Mo  Mo30  1  5.23838674  0.99422756  12.10667914  1
  Mo  Mo31  1  2.95508898  5.26680459  12.82069995  1
  Mo  Mo32  1  6.44393110  7.68852766  4.35630145  1
  Mo  Mo33  1  5.84994641  13.60065177  4.92372508  1
  Mo  Mo34  1  2.60873278  8.78394541  1.95294771  1
  Mo  Mo35  1  2.84752414  8.91062428  4.64434247  1
  Mo  Mo36  1  6.05890995  10.49782373  4.48426121  1
  Mo  Mo37  1  0.20416070  9.52453721  4.30423185  1
  Mo  Mo38  1  5.46560045  7.35983581  1.58784487  1
  Mo  Mo39  1  5.56802188  12.75020144  0.58936753  1
  Mo  Mo40  1  4.15889570  6.93119495  5.35580151  1
  Mo  Mo41  1  3.53464629  11.40636085  2.17170160  1
  Mo  Mo42  1  1.42333511  8.08546405  6.43720892  1
  Mo  Mo43  1  2.40498216  11.19724838  4.56684376  1
  Mo  Mo44  1  0.01548902  11.42621959  2.42975593  1
  Mo  Mo45  1  1.30031024  13.65109295  3.05422378  1
  Mo  Mo46  1  4.81863266  11.98345569  7.02278343  1
  Mo  Mo47  1  1.67230407  7.68938159  9.34210494  1
  Mo  Mo48  1  0.92269441  12.25978999  13.27189041  1
  Mo  Mo49  1  1.46013334  12.21183114  8.40034415  1
  Mo  Mo50  1  3.89774340  12.99863422  10.59433718  1
  Mo  Mo51  1  5.54190764  9.40526564  7.34866527  1
  Mo  Mo52  1  3.79389215  8.51444251  10.99389493  1
  Mo  Mo53  1  4.12998138  7.60105986  8.23301445  1
  Mo  Mo54  1  2.60527736  10.20768762  7.48811331  1
  Mo  Mo55  1  5.32033381  10.93213426  11.72717872  1
  Mo  Mo56  1  1.15719827  13.24140725  10.96907151  1
  Mo  Mo57  1  3.88281956  7.67916427  13.58734641  1
  Mo  Mo58  1  4.64204879  10.62680622  9.32247458  1
  Mo  Mo59  1  6.79228310  8.12402972  10.48511414  1
  Mo  Mo60  1  3.28551846  12.16268077  12.88126909  1
  Mo  Mo61  1  1.22453924  6.96323701  12.38688589  1
  Mo  Mo62  1  1.76905582  9.61035673  13.37992193  1
  Mo  Mo63  1  10.94851772  2.60934840  2.93917220  1
  Mo  Mo64  1  7.07894393  0.93675241  1.61527971  1
  Mo  Mo65  1  9.56366884  0.66183106  3.28065307  1
  Mo  Mo66  1  7.91214694  4.91579152  5.83871629  1
  Mo  Mo67  1  13.65665340  3.69461833  2.77517877  1
  Mo  Mo68  1  8.78223755  3.92655843  3.21185249  1
  Mo  Mo69  1  7.84662305  6.28364132  3.13456229  1
  Mo  Mo70  1  9.46451418  0.55176701  6.05717231  1
  Mo  Mo71  1  12.14282204  5.90579910  1.43311553  1
  Mo  Mo72  1  8.86367823  2.90272149  1.06225366  1
  Mo  Mo73  1  12.11909085  1.10007462  5.87943663  1
  Mo  Mo74  1  12.78981962  0.45207914  3.28548868  1
  Mo  Mo75  1  10.36953631  3.74736313  6.23159157  1
  Mo  Mo76  1  11.37270030  4.97257757  4.18238858  1
  Mo  Mo77  1  9.57774869  5.00388487  0.12428589  1
  Mo  Mo78  1  13.48209512  5.42652839  6.57647822  1
  Mo  Mo79  1  9.83223837  6.82267689  5.55327677  1
  Mo  Mo80  1  11.34539454  2.85719534  0.14163448  1
  Mo  Mo81  1  11.34936628  5.95257635  7.78086085  1
  Mo  Mo82  1  7.65362593  0.87081645  8.21396993  1
  Mo  Mo83  1  12.59858000  2.65952149  7.53418557  1
  Mo  Mo84  1  12.19107876  2.64858926  11.23100822  1
  Mo  Mo85  1  8.68955684  5.36165983  8.42744140  1
  Mo  Mo86  1  9.38987512  3.67214817  11.45491546  1
  Mo  Mo87  1  13.19027101  0.64079471  12.94928526  1
  Mo  Mo88  1  7.12936526  2.33718444  12.89507092  1
  Mo  Mo89  1  12.39860254  5.24996438  12.69817156  1
  Mo  Mo90  1  7.21210668  2.51736274  10.37996214  1
  Mo  Mo91  1  10.33369129  1.80902153  8.85720428  1
  Mo  Mo92  1  9.96163789  0.75377800  11.81952183  1
  Mo  Mo93  1  7.11310096  5.68751189  11.74773251  1
  Mo  Mo94  1  9.33061666  6.12369907  10.96013508  1
  Mo  Mo95  1  8.62594931  8.74511165  5.63934452  1
  Mo  Mo96  1  9.70064447  8.48794103  2.23911208  1
  Mo  Mo97  1  11.14372908  12.45629217  1.90498886  1
  Mo  Mo98  1  6.92689553  10.46138295  1.00174409  1
  Mo  Mo99  1  12.09526037  7.41115078  5.43319100  1
  Mo  Mo100  1  11.46127026  9.86331729  3.84488938  1
  Mo  Mo101  1  13.03437994  7.84685142  2.44415351  1
  Mo  Mo102  1  12.74235724  9.75839367  0.82604890  1
  Mo  Mo103  1  13.48110218  12.14292133  5.31489251  1
  Mo  Mo104  1  7.67491450  12.11829650  5.72623642  1
  Mo  Mo105  1  10.46753916  11.78735068  6.07526361  1
  Mo  Mo106  1  9.13207896  11.09547236  2.35426295  1
  Mo  Mo107  1  8.35727056  6.99384925  0.57989392  1
  Mo  Mo108  1  6.92753101  12.30189050  2.91830067  1
  Mo  Mo109  1  8.88713139  13.42212174  0.69760558  1
  Mo  Mo110  1  12.89159564  10.40786366  6.59998104  1
  Mo  Mo111  1  9.39129502  12.99476176  8.32567531  1
  Mo  Mo112  1  7.28189027  11.29356324  8.33169251  1
  Mo  Mo113  1  11.02070422  9.15258310  10.19031122  1
  Mo  Mo114  1  11.88217614  13.52697586  10.36983419  1
  Mo  Mo115  1  7.54119571  12.01185368  12.78574858  1
  Mo  Mo116  1  7.99971404  8.22553764  8.36322818  1
  Mo  Mo117  1  10.38294095  7.90260482  13.49430824  1
  Mo  Mo118  1  10.67784316  9.40089672  7.47328876  1
  Mo  Mo119  1  13.56560110  10.04931420  9.19804968  1
  Mo  Mo120  1  10.38492682  11.41648881  10.98714296  1
  Mo  Mo121  1  12.76797501  13.35350981  8.17116442  1
  Mo  Mo122  1  9.02938944  9.72407777  13.68644150  1
  Mo  Mo123  1  11.23825666  12.27488262  13.08819711  1
  Mo  Mo124  1  8.87242600  9.53715743  10.93948200  1
  Mo  Mo125  1  12.92595125  8.14097915  7.86728606  1
  Mo  Mo126  1  6.85374588  9.07069561  12.82079925  1
  Mo  Mo127  1  13.55179928  9.02999513  11.94522763  1
