# generated using pymatgen
data_Mo
_symmetry_space_group_name_H-M   'P 1'
_cell_length_a   9.50240465
_cell_length_b   9.50240465
_cell_length_c   9.50240465
_cell_angle_alpha   90.00000000
_cell_angle_beta   90.00000000
_cell_angle_gamma   90.00000000
_symmetry_Int_Tables_number   1
_chemical_formula_structural   Mo
_chemical_formula_sum   Mo55
_cell_volume   858.02622273
_cell_formula_units_Z   55
loop_
 _symmetry_equiv_pos_site_id
 _symmetry_equiv_pos_as_xyz
  1  'x, y, z'
loop_
 _atom_site_type_symbol
 _atom_site_label
 _atom_site_symmetry_multiplicity
 _atom_site_fract_x
 _atom_site_fract_y
 _atom_site_fract_z
 _atom_site_occupancy
  Mo  Mo0  1  -0.00185858  0.00439322  -0.03652438  1
  Mo  Mo1  1  1.69422811  1.55533612  1.62407713  1
  Mo  Mo2  1  0.09048176  -0.01277532  3.00764512  1
  Mo  Mo3  1  0.02580792  3.16467806  0.15306120  1
  Mo  Mo4  1  -0.12091984  3.15033013  3.25720984  1
  Mo  Mo5  1  3.22717350  0.18002837  -0.04956780  1
  Mo  Mo6  1  3.30767088  0.07184434  3.06381555  1
  Mo  Mo7  1  3.19145757  3.26692076  0.13344077  1
  Mo  Mo8  1  3.14472996  3.21742286  3.21923994  1
  Mo  Mo9  1  4.84290996  1.69233160  1.52461465  1
  Mo  Mo10  1  6.27251050  0.00410112  0.00746444  1
  Mo  Mo11  1  7.94858772  1.58567033  1.59649334  1
  Mo  Mo12  1  6.32857171  -0.12860715  3.18471553  1
  Mo  Mo13  1  6.26490460  3.04939811  -0.03300154  1
  Mo  Mo14  1  6.16370449  3.11903276  3.24148172  1
  Mo  Mo15  1  1.64691467  1.56402431  4.64049981  1
  Mo  Mo16  1  0.11308954  -0.02467478  6.32564254  1
  Mo  Mo17  1  1.65818450  1.50207499  7.89536631  1
  Mo  Mo18  1  -0.01291553  3.16622704  6.38410666  1
  Mo  Mo19  1  3.14491862  -0.02738440  6.20214107  1
  Mo  Mo20  1  3.01136863  3.23542481  6.44970006  1
  Mo  Mo21  1  4.83204723  1.58758670  4.82460021  1
  Mo  Mo22  1  4.82453070  1.58248301  7.87934031  1
  Mo  Mo23  1  7.88379860  1.53563625  4.79096944  1
  Mo  Mo24  1  6.28872515  -0.06959315  6.20146587  1
  Mo  Mo25  1  7.95941073  1.54959694  7.97854462  1
  Mo  Mo26  1  6.25872854  3.10692886  6.34293950  1
  Mo  Mo27  1  1.58431001  4.81797732  1.67906596  1
  Mo  Mo28  1  -0.04635605  6.36008752  -0.00650922  1
  Mo  Mo29  1  1.64133437  7.94437767  1.55455170  1
  Mo  Mo30  1  -0.18099152  6.26384216  3.30991492  1
  Mo  Mo31  1  3.22622028  6.39377786  -0.15245849  1
  Mo  Mo32  1  3.11440568  6.29856516  3.25182812  1
  Mo  Mo33  1  4.68901469  4.84450859  1.62127705  1
  Mo  Mo34  1  4.64688439  7.81645763  1.49560104  1
  Mo  Mo35  1  7.97927940  4.87046396  1.46306251  1
  Mo  Mo36  1  6.36138827  6.49101616  -0.00338179  1
  Mo  Mo37  1  7.99969418  7.95742486  1.61477331  1
  Mo  Mo38  1  6.30820657  6.42111341  3.07077604  1
  Mo  Mo39  1  1.43225168  4.75851034  4.76850921  1
  Mo  Mo40  1  1.61459458  4.78344298  7.95952989  1
  Mo  Mo41  1  1.53740368  7.86059367  4.68176626  1
  Mo  Mo42  1  -0.12854261  6.37767243  6.33085546  1
  Mo  Mo43  1  1.60472479  7.95591560  7.84120161  1
  Mo  Mo44  1  3.28870579  6.34371399  6.24607852  1
  Mo  Mo45  1  4.63034206  4.80617130  4.93957235  1
  Mo  Mo46  1  4.95758423  4.66773606  8.02593749  1
  Mo  Mo47  1  4.85950193  7.86248025  4.72741156  1
  Mo  Mo48  1  4.72092768  7.74977200  7.78205237  1
  Mo  Mo49  1  7.81705339  4.64213815  4.76787373  1
  Mo  Mo50  1  7.91254412  4.69464465  7.98815625  1
  Mo  Mo51  1  7.90268426  7.89670678  4.77954074  1
  Mo  Mo52  1  6.40096672  6.33327823  6.33535346  1
  Mo  Mo53  1  7.94124992  7.96331297  7.92226497  1
  Mo  Mo54  1  1.83293787  6.65971043  2.78637211  1
