# generated using pymatgen
data_Mo
_symmetry_space_group_name_H-M   'P 1'
_cell_length_a   9.50240465
_cell_length_b   9.50240465
_cell_length_c   9.50240465
_cell_angle_alpha   90.00000000
_cell_angle_beta   90.00000000
_cell_angle_gamma   90.00000000
_symmetry_Int_Tables_number   1
_chemical_formula_structural   Mo
_chemical_formula_sum   Mo55
_cell_volume   858.02622273
_cell_formula_units_Z   55
loop_
 _symmetry_equiv_pos_site_id
 _symmetry_equiv_pos_as_xyz
  1  'x, y, z'
loop_
 _atom_site_type_symbol
 _atom_site_label
 _atom_site_symmetry_multiplicity
 _atom_site_fract_x
 _atom_site_fract_y
 _atom_site_fract_z
 _atom_site_occupancy
  Mo  Mo0  1  0.02121826  -0.04497418  -0.00871583  1
  Mo  Mo1  1  1.56045967  1.73925779  1.59323651  1
  Mo  Mo2  1  -0.04142413  -0.03551695  3.05839411  1
  Mo  Mo3  1  0.05129283  3.22052083  0.12496605  1
  Mo  Mo4  1  0.02473038  3.09983929  3.22212938  1
  Mo  Mo5  1  3.13615099  -0.14153817  -0.00642758  1
  Mo  Mo6  1  3.12691668  0.02057752  3.17348541  1
  Mo  Mo7  1  3.12536770  3.25297993  0.07600881  1
  Mo  Mo8  1  3.16538305  3.08871840  3.26278021  1
  Mo  Mo9  1  4.85538125  1.71871393  1.65525534  1
  Mo  Mo10  1  6.33633647  -0.17649153  -0.05831309  1
  Mo  Mo11  1  7.95089134  1.42747565  1.46050073  1
  Mo  Mo12  1  6.30848460  -0.01445001  3.20445511  1
  Mo  Mo13  1  6.28044406  3.09852862  0.05506807  1
  Mo  Mo14  1  6.34160897  3.21675760  3.10578698  1
  Mo  Mo15  1  1.50697017  1.57444022  4.75184773  1
  Mo  Mo16  1  0.04836198  0.11921099  6.30878248  1
  Mo  Mo17  1  1.73074832  1.52145712  8.01315840  1
  Mo  Mo18  1  0.06775195  3.22156341  6.30919951  1
  Mo  Mo19  1  3.17960190  0.03544248  6.27548931  1
  Mo  Mo20  1  3.21957754  3.17849974  6.37758306  1
  Mo  Mo21  1  4.73993249  1.69566787  4.83732966  1
  Mo  Mo22  1  4.69227153  1.70105951  8.05952854  1
  Mo  Mo23  1  7.94620467  1.56593075  4.65190865  1
  Mo  Mo24  1  6.34594810  0.04765163  6.33732941  1
  Mo  Mo25  1  8.01937418  1.53369010  7.91404345  1
  Mo  Mo26  1  6.43200593  3.18267008  6.32154171  1
  Mo  Mo27  1  1.51580730  4.69377086  1.64993320  1
  Mo  Mo28  1  -0.02327613  6.32848234  0.03512275  1
  Mo  Mo29  1  1.59086339  7.84003988  1.49769614  1
  Mo  Mo30  1  -0.03923738  6.29979640  3.17697062  1
  Mo  Mo31  1  3.17975084  6.30312274  -0.16029574  1
  Mo  Mo32  1  3.21812785  6.33899754  3.13459208  1
  Mo  Mo33  1  4.78236068  4.72007376  1.69028615  1
  Mo  Mo34  1  4.82364699  7.95700783  1.63034256  1
  Mo  Mo35  1  7.80440338  4.83045853  1.51879604  1
  Mo  Mo36  1  6.16616697  6.29307422  -0.04779868  1
  Mo  Mo37  1  7.91052846  7.69311503  1.72435381  1
  Mo  Mo38  1  6.23264409  6.45919253  3.16297021  1
  Mo  Mo39  1  1.46876196  4.82151217  4.68883597  1
  Mo  Mo40  1  1.41026806  4.74768733  7.87289615  1
  Mo  Mo41  1  1.60430776  7.93000988  4.76123098  1
  Mo  Mo42  1  0.00575379  6.35313696  6.42223543  1
  Mo  Mo43  1  1.65003249  7.92453879  7.84686135  1
  Mo  Mo44  1  3.14354837  6.39912979  6.31552452  1
  Mo  Mo45  1  4.79658946  4.60783219  4.79094958  1
  Mo  Mo46  1  4.79151555  4.85521245  7.92855026  1
  Mo  Mo47  1  4.72838464  8.02916454  4.70733438  1
  Mo  Mo48  1  4.85635432  7.94938207  7.89880187  1
  Mo  Mo49  1  8.02861842  4.73456070  4.72883146  1
  Mo  Mo50  1  7.91397395  4.76370340  7.97258700  1
  Mo  Mo51  1  7.82754873  7.88718451  4.66898716  1
  Mo  Mo52  1  6.31205917  6.24163016  6.25925479  1
  Mo  Mo53  1  7.93261137  7.95458506  7.85193526  1
  Mo  Mo54  1  1.05432669  2.35344373  0.22080071  1
