# generated using pymatgen
data_Mo
_symmetry_space_group_name_H-M   'P 1'
_cell_length_a   9.58283252
_cell_length_b   9.58283252
_cell_length_c   9.58283252
_cell_angle_alpha   90.00000000
_cell_angle_beta   90.00000000
_cell_angle_gamma   90.00000000
_symmetry_Int_Tables_number   1
_chemical_formula_structural   Mo
_chemical_formula_sum   Mo55
_cell_volume   879.99801873
_cell_formula_units_Z   55
loop_
 _symmetry_equiv_pos_site_id
 _symmetry_equiv_pos_as_xyz
  1  'x, y, z'
loop_
 _atom_site_type_symbol
 _atom_site_label
 _atom_site_symmetry_multiplicity
 _atom_site_fract_x
 _atom_site_fract_y
 _atom_site_fract_z
 _atom_site_occupancy
  Mo  Mo0  1  0.06094735  0.08474576  -0.01892676  1
  Mo  Mo1  1  1.57390403  1.74897864  1.67990996  1
  Mo  Mo2  1  0.01103500  -0.00094743  3.10964951  1
  Mo  Mo3  1  0.00466286  3.19368175  0.02633864  1
  Mo  Mo4  1  0.01524505  3.23867171  3.16741857  1
  Mo  Mo5  1  2.98307986  0.05222897  -0.07371751  1
  Mo  Mo6  1  3.26414054  0.13826048  3.16488658  1
  Mo  Mo7  1  3.13569424  3.20192312  0.05521691  1
  Mo  Mo8  1  3.17932388  3.17051653  3.28079209  1
  Mo  Mo9  1  4.78935095  1.52528985  1.64407487  1
  Mo  Mo10  1  6.17570909  -0.17586300  0.05729593  1
  Mo  Mo11  1  8.04333375  1.54135557  1.70683841  1
  Mo  Mo12  1  6.40029153  -0.03029887  3.13294380  1
  Mo  Mo13  1  6.43804298  3.16864981  -0.02911241  1
  Mo  Mo14  1  6.42553198  3.15699273  3.22142440  1
  Mo  Mo15  1  1.56684425  1.63167309  4.83107415  1
  Mo  Mo16  1  0.03339554  0.11738597  6.47498023  1
  Mo  Mo17  1  1.46626969  1.62436508  7.87515012  1
  Mo  Mo18  1  -0.06491662  3.20236001  6.39542614  1
  Mo  Mo19  1  3.20207206  0.03838475  6.35330576  1
  Mo  Mo20  1  3.09565903  3.40584254  6.39446299  1
  Mo  Mo21  1  4.73219751  1.47077762  4.69925187  1
  Mo  Mo22  1  4.78489267  1.60638299  7.86108021  1
  Mo  Mo23  1  7.96742373  1.55621983  4.78859632  1
  Mo  Mo24  1  6.38052216  -0.17174728  6.51463812  1
  Mo  Mo25  1  7.94616496  1.54972602  8.04135780  1
  Mo  Mo26  1  6.44117073  3.13017351  6.17485517  1
  Mo  Mo27  1  1.55348925  4.76834041  1.60322546  1
  Mo  Mo28  1  0.13620610  6.36394011  0.06372936  1
  Mo  Mo29  1  1.72191119  7.99021163  1.71626137  1
  Mo  Mo30  1  0.06666418  6.36049462  3.28940085  1
  Mo  Mo31  1  3.17463722  6.38470242  -0.02672956  1
  Mo  Mo32  1  3.26818179  6.37590500  3.19744498  1
  Mo  Mo33  1  4.76861843  4.75478682  1.54951751  1
  Mo  Mo34  1  4.77066388  7.94843878  1.47070812  1
  Mo  Mo35  1  7.95292686  4.71102810  1.72176224  1
  Mo  Mo36  1  6.36938141  6.25153967  -0.12496407  1
  Mo  Mo37  1  8.03838892  7.89518758  1.59816148  1
  Mo  Mo38  1  6.45407891  6.41940556  3.17291944  1
  Mo  Mo39  1  1.68079367  4.90824520  4.83856090  1
  Mo  Mo40  1  1.65970370  4.92150090  7.94087260  1
  Mo  Mo41  1  1.68824070  8.07966530  4.78062304  1
  Mo  Mo42  1  0.01353740  6.40520656  6.41145214  1
  Mo  Mo43  1  1.52843746  7.92125217  8.05261771  1
  Mo  Mo44  1  3.21057160  6.48068962  6.40187030  1
  Mo  Mo45  1  4.88747296  4.78127838  4.70675847  1
  Mo  Mo46  1  4.63017326  4.88015502  8.02345515  1
  Mo  Mo47  1  4.77645270  7.98652784  4.70971743  1
  Mo  Mo48  1  4.80038248  7.92889779  8.02231328  1
  Mo  Mo49  1  7.98470083  4.73449120  4.79708593  1
  Mo  Mo50  1  8.01863941  4.77541012  8.01343642  1
  Mo  Mo51  1  8.00322903  7.97254729  4.77568814  1
  Mo  Mo52  1  6.42000132  6.37659013  6.32298147  1
  Mo  Mo53  1  7.98423415  8.06155414  8.05569581  1
  Mo  Mo54  1  8.71251577  9.37533530  5.10575754  1
