# generated using pymatgen
data_Mo
_symmetry_space_group_name_H-M   'P 1'
_cell_length_a   9.58283252
_cell_length_b   9.58283252
_cell_length_c   9.58283252
_cell_angle_alpha   90.00000000
_cell_angle_beta   90.00000000
_cell_angle_gamma   90.00000000
_symmetry_Int_Tables_number   1
_chemical_formula_structural   Mo
_chemical_formula_sum   Mo55
_cell_volume   879.99801873
_cell_formula_units_Z   55
loop_
 _symmetry_equiv_pos_site_id
 _symmetry_equiv_pos_as_xyz
  1  'x, y, z'
loop_
 _atom_site_type_symbol
 _atom_site_label
 _atom_site_symmetry_multiplicity
 _atom_site_fract_x
 _atom_site_fract_y
 _atom_site_fract_z
 _atom_site_occupancy
  Mo  Mo0  1  -0.12739776  -0.03018826  -0.08353726  1
  Mo  Mo1  1  1.56797620  1.75585969  1.69956018  1
  Mo  Mo2  1  -0.04623183  0.14353596  3.30625098  1
  Mo  Mo3  1  -0.07966739  3.12351091  0.11998350  1
  Mo  Mo4  1  0.09341857  3.28728589  3.00719830  1
  Mo  Mo5  1  3.11301556  -0.04822446  0.03914236  1
  Mo  Mo6  1  3.21866403  0.05279991  3.24424208  1
  Mo  Mo7  1  3.19133841  3.19162637  -0.03270217  1
  Mo  Mo8  1  3.14597113  3.16199713  3.20869495  1
  Mo  Mo9  1  4.80367903  1.62691693  1.71087966  1
  Mo  Mo10  1  6.42542276  0.05937156  0.01596791  1
  Mo  Mo11  1  7.88167372  1.60920294  1.66765712  1
  Mo  Mo12  1  6.39149411  -0.02946272  3.24482792  1
  Mo  Mo13  1  6.44725744  3.08443884  0.08379641  1
  Mo  Mo14  1  6.33571092  3.23949585  3.40503826  1
  Mo  Mo15  1  1.74711192  1.63914991  4.86012748  1
  Mo  Mo16  1  0.02547925  -0.07800054  6.28826840  1
  Mo  Mo17  1  1.60702840  1.66190802  7.98083831  1
  Mo  Mo18  1  -0.01954755  3.15854171  6.25506460  1
  Mo  Mo19  1  3.27250106  -0.13533033  6.41047906  1
  Mo  Mo20  1  3.17469679  3.22833524  6.37059279  1
  Mo  Mo21  1  4.85358403  1.53370003  4.95380114  1
  Mo  Mo22  1  4.96923137  1.70476317  8.04909278  1
  Mo  Mo23  1  7.84676206  1.54764086  4.92360593  1
  Mo  Mo24  1  6.31952605  -0.05374826  6.52352491  1
  Mo  Mo25  1  8.10698099  1.61911244  7.95457513  1
  Mo  Mo26  1  6.49327012  3.26804278  6.41237557  1
  Mo  Mo27  1  1.78965926  4.80008460  1.36405678  1
  Mo  Mo28  1  -0.12721307  6.39996386  -0.04039793  1
  Mo  Mo29  1  1.36488092  8.11187617  1.68879674  1
  Mo  Mo30  1  -0.02926850  6.44394103  3.11690788  1
  Mo  Mo31  1  3.23021189  6.48439327  -0.11123076  1
  Mo  Mo32  1  3.22219889  6.46814882  3.19678964  1
  Mo  Mo33  1  4.83244441  4.69038495  1.57428135  1
  Mo  Mo34  1  4.76649355  8.06306340  1.53229998  1
  Mo  Mo35  1  7.83584968  4.80147471  1.64714305  1
  Mo  Mo36  1  6.36173579  6.29729420  -0.14549204  1
  Mo  Mo37  1  8.02747655  7.93043684  1.41281991  1
  Mo  Mo38  1  6.44441764  6.40421363  3.12962740  1
  Mo  Mo39  1  1.61711664  4.80479112  4.74066726  1
  Mo  Mo40  1  1.62380903  4.76581835  7.96600383  1
  Mo  Mo41  1  1.60665109  8.01001079  4.73369685  1
  Mo  Mo42  1  0.00018345  6.39704462  6.45991738  1
  Mo  Mo43  1  1.65979306  7.95362191  7.91185899  1
  Mo  Mo44  1  3.19850742  6.30756116  6.29780060  1
  Mo  Mo45  1  4.77133908  4.78487281  4.82259447  1
  Mo  Mo46  1  4.79140633  4.72410508  7.90848301  1
  Mo  Mo47  1  4.79169428  7.70967721  4.84148013  1
  Mo  Mo48  1  4.75980116  7.97679706  8.06547624  1
  Mo  Mo49  1  8.04056345  4.79050276  4.74596955  1
  Mo  Mo50  1  8.09418204  4.83841196  8.04492245  1
  Mo  Mo51  1  7.92866941  7.92891765  4.77370227  1
  Mo  Mo52  1  6.34630556  6.44493396  6.41026061  1
  Mo  Mo53  1  7.90583187  7.95911285  7.90596095  1
  Mo  Mo54  1  3.54178022  0.72030841  7.42854449  1
