# generated using pymatgen
data_Mo
_symmetry_space_group_name_H-M   'P 1'
_cell_length_a   9.65134516
_cell_length_b   9.65134516
_cell_length_c   9.65134516
_cell_angle_alpha   90.00000000
_cell_angle_beta   90.00000000
_cell_angle_gamma   90.00000000
_symmetry_Int_Tables_number   1
_chemical_formula_structural   Mo
_chemical_formula_sum   Mo55
_cell_volume   899.00797074
_cell_formula_units_Z   55
loop_
 _symmetry_equiv_pos_site_id
 _symmetry_equiv_pos_as_xyz
  1  'x, y, z'
loop_
 _atom_site_type_symbol
 _atom_site_label
 _atom_site_symmetry_multiplicity
 _atom_site_fract_x
 _atom_site_fract_y
 _atom_site_fract_z
 _atom_site_occupancy
  Mo  Mo0  1  -0.07455327  0.04392703  0.03474514  1
  Mo  Mo1  1  1.57381467  1.59714868  1.56056889  1
  Mo  Mo2  1  -0.13192257  0.11035003  3.14622930  1
  Mo  Mo3  1  0.15000792  3.20853608  -0.03069952  1
  Mo  Mo4  1  0.04099935  3.15064787  3.16880868  1
  Mo  Mo5  1  3.28967887  0.14141107  0.05472889  1
  Mo  Mo6  1  3.18250128  -0.00692712  3.32380611  1
  Mo  Mo7  1  3.28114954  3.26969105  -0.14760203  1
  Mo  Mo8  1  3.24801524  3.22147404  3.18292824  1
  Mo  Mo9  1  4.83764740  1.51776339  1.69445648  1
  Mo  Mo10  1  6.36252021  0.02438563  -0.18734929  1
  Mo  Mo11  1  8.07731204  1.53248864  1.67874822  1
  Mo  Mo12  1  6.39780919  -0.12660738  3.22890121  1
  Mo  Mo13  1  6.48091799  3.15498700  0.12441696  1
  Mo  Mo14  1  6.47923993  3.07876918  3.30230903  1
  Mo  Mo15  1  1.57799493  1.74225646  4.77636334  1
  Mo  Mo16  1  0.09799561  -0.02880470  6.50169023  1
  Mo  Mo17  1  1.67059621  1.58631574  8.02315727  1
  Mo  Mo18  1  -0.06305198  3.41791665  6.47494051  1
  Mo  Mo19  1  3.17980049  0.09091845  6.32109489  1
  Mo  Mo20  1  3.27157763  3.12500031  6.42721004  1
  Mo  Mo21  1  4.73973390  1.53512985  4.91474893  1
  Mo  Mo22  1  4.76271046  1.62500056  8.06192152  1
  Mo  Mo23  1  8.04374085  1.59447768  4.84878815  1
  Mo  Mo24  1  6.54752419  0.07633727  6.26425919  1
  Mo  Mo25  1  8.10970164  1.61207252  7.99174075  1
  Mo  Mo26  1  6.37772208  3.24176967  6.49375666  1
  Mo  Mo27  1  1.60138852  4.82708255  1.77229280  1
  Mo  Mo28  1  -0.04779620  6.43520318  -0.11989910  1
  Mo  Mo29  1  1.58510436  8.13035472  1.62473247  1
  Mo  Mo30  1  -0.00246716  6.40238662  3.25274162  1
  Mo  Mo31  1  3.15122377  6.51371469  -0.11913156  1
  Mo  Mo32  1  3.27140883  6.34628570  3.30012456  1
  Mo  Mo33  1  4.86335453  4.88374945  1.69986799  1
  Mo  Mo34  1  4.77899462  7.97895173  1.63512851  1
  Mo  Mo35  1  8.08863152  4.71347073  1.68991876  1
  Mo  Mo36  1  6.44354385  6.37088074  0.15175648  1
  Mo  Mo37  1  8.01394282  8.01174843  1.47207837  1
  Mo  Mo38  1  6.55994583  6.33715068  3.17902600  1
  Mo  Mo39  1  1.58581927  4.82405409  4.78522034  1
  Mo  Mo40  1  1.64808634  4.80906075  8.01659396  1
  Mo  Mo41  1  1.56259448  8.21968924  4.74755825  1
  Mo  Mo42  1  0.00896320  6.39488002  6.40666618  1
  Mo  Mo43  1  1.56073769  8.07077852  8.05894271  1
  Mo  Mo44  1  3.09677112  6.50560240  6.54530001  1
  Mo  Mo45  1  4.81445239  4.64922772  4.85009882  1
  Mo  Mo46  1  4.93137070  4.96606391  8.02184660  1
  Mo  Mo47  1  4.84176808  7.98724275  4.84898673  1
  Mo  Mo48  1  4.78555793  7.98315185  8.05409718  1
  Mo  Mo49  1  8.01606770  4.83047839  4.77419874  1
  Mo  Mo50  1  7.96736416  4.79272694  8.01431021  1
  Mo  Mo51  1  8.12363254  7.96645065  4.84299933  1
  Mo  Mo52  1  6.45433707  6.60375420  6.42432060  1
  Mo  Mo53  1  7.93927398  8.06470175  7.99085704  1
  Mo  Mo54  1  9.29110562  1.90179976  6.89675439  1
