# generated using pymatgen
data_Mo
_symmetry_space_group_name_H-M   'P 1'
_cell_length_a   9.65134516
_cell_length_b   9.65134516
_cell_length_c   9.65134516
_cell_angle_alpha   90.00000000
_cell_angle_beta   90.00000000
_cell_angle_gamma   90.00000000
_symmetry_Int_Tables_number   1
_chemical_formula_structural   Mo
_chemical_formula_sum   Mo55
_cell_volume   899.00797074
_cell_formula_units_Z   55
loop_
 _symmetry_equiv_pos_site_id
 _symmetry_equiv_pos_as_xyz
  1  'x, y, z'
loop_
 _atom_site_type_symbol
 _atom_site_label
 _atom_site_symmetry_multiplicity
 _atom_site_fract_x
 _atom_site_fract_y
 _atom_site_fract_z
 _atom_site_occupancy
  Mo  Mo0  1  0.09214592  -0.01250385  -0.08302262  1
  Mo  Mo1  1  1.89268638  1.75261279  1.45986525  1
  Mo  Mo2  1  0.02825660  -0.00005552  3.20252881  1
  Mo  Mo3  1  0.10617671  3.26093335  0.00908084  1
  Mo  Mo4  1  0.09466818  3.28630288  3.18648295  1
  Mo  Mo5  1  3.27796222  -0.07264305  -0.23704180  1
  Mo  Mo6  1  3.30507932  0.08345961  3.09963078  1
  Mo  Mo7  1  3.19751448  3.20986661  -0.07901989  1
  Mo  Mo8  1  3.20466363  3.24985218  3.11961859  1
  Mo  Mo9  1  4.98748155  1.68086318  1.55975469  1
  Mo  Mo10  1  6.50795566  0.01369488  0.09891467  1
  Mo  Mo11  1  8.23825716  1.62859499  1.61666982  1
  Mo  Mo12  1  6.37984696  0.06156337  3.18940219  1
  Mo  Mo13  1  6.46208198  3.27438764  0.11659957  1
  Mo  Mo14  1  6.51205649  3.30012456  3.29606345  1
  Mo  Mo15  1  1.61400875  1.58853992  4.82613926  1
  Mo  Mo16  1  0.05344641  -0.07134648  6.42959309  1
  Mo  Mo17  1  1.66367544  1.56437184  8.01486625  1
  Mo  Mo18  1  -0.15316248  3.30636021  6.50451017  1
  Mo  Mo19  1  3.19272853  -0.00227283  6.43753658  1
  Mo  Mo20  1  3.14036104  3.10431744  6.43552092  1
  Mo  Mo21  1  4.81313179  1.79248913  4.85516280  1
  Mo  Mo22  1  4.80828626  1.60956039  7.98451217  1
  Mo  Mo23  1  7.97949784  1.50383249  4.77214336  1
  Mo  Mo24  1  6.44492403  0.06502117  6.38066117  1
  Mo  Mo25  1  7.94017755  1.59515288  8.05657952  1
  Mo  Mo26  1  6.34420053  3.17626563  6.48659759  1
  Mo  Mo27  1  1.66438043  4.79258793  1.64089748  1
  Mo  Mo28  1  -0.06944093  6.38934936  0.02014003  1
  Mo  Mo29  1  1.61609392  8.13692796  1.51908400  1
  Mo  Mo30  1  -0.00852256  6.46918148  3.21766117  1
  Mo  Mo31  1  3.08264163  6.48152368  -0.02452355  1
  Mo  Mo32  1  3.16203685  6.38688688  3.17595782  1
  Mo  Mo33  1  4.66354587  4.83692255  1.49843091  1
  Mo  Mo34  1  4.74722065  7.96187322  1.65604969  1
  Mo  Mo35  1  7.98682572  4.84589870  1.71469253  1
  Mo  Mo36  1  6.39278493  6.41262380  -0.05022542  1
  Mo  Mo37  1  8.08937622  8.08958474  1.71332228  1
  Mo  Mo38  1  6.52017871  6.50661519  3.32445151  1
  Mo  Mo39  1  1.67414100  4.79513977  4.82957482  1
  Mo  Mo40  1  1.50643398  4.94636404  8.06864370  1
  Mo  Mo41  1  1.83034981  8.07849364  4.79515963  1
  Mo  Mo42  1  -0.23224890  6.36429757  6.46121813  1
  Mo  Mo43  1  1.60583688  8.10002051  7.99986298  1
  Mo  Mo44  1  3.12962740  6.48634935  6.54862635  1
  Mo  Mo45  1  4.71158415  4.89984495  4.79614264  1
  Mo  Mo46  1  4.72336038  4.82907835  8.05434542  1
  Mo  Mo47  1  4.88279623  7.87223089  4.79952855  1
  Mo  Mo48  1  4.91920722  8.02117140  8.02111182  1
  Mo  Mo49  1  7.97489062  4.65774712  4.96743416  1
  Mo  Mo50  1  8.06435422  4.76871773  8.17961431  1
  Mo  Mo51  1  7.99593095  7.94204427  4.96366100  1
  Mo  Mo52  1  6.32788658  6.29088976  6.44872698  1
  Mo  Mo53  1  8.06586348  7.84357473  8.07633896  1
  Mo  Mo54  1  9.57406023  2.04857039  9.14340128  1
