# generated using pymatgen
data_Mo
_symmetry_space_group_name_H-M   'P 1'
_cell_length_a   9.46603805
_cell_length_b   9.46603785
_cell_length_c   9.46603779
_cell_angle_alpha   90.00000282
_cell_angle_beta   89.99999931
_cell_angle_gamma   89.99999840
_symmetry_Int_Tables_number   1
_chemical_formula_structural   Mo
_chemical_formula_sum   Mo54
_cell_volume   848.21259331
_cell_formula_units_Z   54
loop_
 _symmetry_equiv_pos_site_id
 _symmetry_equiv_pos_as_xyz
  1  'x, y, z'
loop_
 _atom_site_type_symbol
 _atom_site_label
 _atom_site_symmetry_multiplicity
 _atom_site_fract_x
 _atom_site_fract_y
 _atom_site_fract_z
 _atom_site_occupancy
  Mo  Mo0  1  1.59949723  1.54527832  1.62671416  1
  Mo  Mo1  1  -0.04840720  -0.03178254  3.06863619  1
  Mo  Mo2  1  1.59344168  1.47261626  4.75312492  1
  Mo  Mo3  1  -0.03937186  -0.04611182  6.35046214  1
  Mo  Mo4  1  1.48359281  1.60316400  7.88161763  1
  Mo  Mo5  1  -0.02608890  3.01752036  0.06493761  1
  Mo  Mo6  1  1.55418937  4.73928038  1.57361617  1
  Mo  Mo7  1  -0.03075516  3.12751120  3.22579954  1
  Mo  Mo8  1  1.60619168  4.76871729  4.75755667  1
  Mo  Mo9  1  0.00887410  3.22828263  6.29317786  1
  Mo  Mo10  1  1.54971048  4.75700690  7.99842598  1
  Mo  Mo11  1  0.01533199  6.30748291  0.00045272  1
  Mo  Mo12  1  1.56982978  7.90743606  1.62936276  1
  Mo  Mo13  1  -0.02509141  6.31882276  3.10588197  1
  Mo  Mo14  1  1.55477762  7.89700700  4.70972261  1
  Mo  Mo15  1  0.06816887  6.28073410  6.27366630  1
  Mo  Mo16  1  1.60862333  7.88403750  7.88872731  1
  Mo  Mo17  1  3.12952724  0.03561627  -0.07144793  1
  Mo  Mo18  1  4.72860822  1.60624606  1.55356093  1
  Mo  Mo19  1  3.13505404  0.01043178  3.23880942  1
  Mo  Mo20  1  4.71694508  1.58214640  4.70446050  1
  Mo  Mo21  1  3.22166042  0.02025011  6.33367353  1
  Mo  Mo22  1  4.76238521  1.56710195  7.91664069  1
  Mo  Mo23  1  3.13703059  3.20117454  -0.00533360  1
  Mo  Mo24  1  4.81008247  4.76744455  1.52450968  1
  Mo  Mo25  1  3.14884120  3.25852684  3.14491746  1
  Mo  Mo26  1  4.74447775  4.70239911  4.79379458  1
  Mo  Mo27  1  3.15593888  3.21592819  6.28048739  1
  Mo  Mo28  1  4.76209448  4.82140049  7.89004498  1
  Mo  Mo29  1  3.18405395  6.27775908  -0.00736628  1
  Mo  Mo30  1  4.71942410  7.89538255  1.60832451  1
  Mo  Mo31  1  3.18046264  6.32168294  3.12803002  1
  Mo  Mo32  1  4.67570053  7.91310974  4.73124684  1
  Mo  Mo33  1  3.14354127  6.30592110  6.24400273  1
  Mo  Mo34  1  4.68084335  7.94656041  7.90660125  1
  Mo  Mo35  1  6.40599068  -0.10913876  0.03760337  1
  Mo  Mo36  1  7.86376289  1.56195542  1.62816645  1
  Mo  Mo37  1  6.24274573  -0.01513982  3.19875065  1
  Mo  Mo38  1  7.85049753  1.53310482  4.73277653  1
  Mo  Mo39  1  6.32921494  -0.04188911  6.28262738  1
  Mo  Mo40  1  7.82756980  1.54111880  7.89972767  1
  Mo  Mo41  1  6.31616223  3.15014888  -0.03408323  1
  Mo  Mo42  1  7.89429506  4.72103931  1.60676205  1
  Mo  Mo43  1  6.26968104  3.24698542  3.14589233  1
  Mo  Mo44  1  7.95385930  4.79827039  4.71063859  1
  Mo  Mo45  1  6.22204659  3.14916508  6.30196946  1
  Mo  Mo46  1  7.92951933  4.72069631  7.99325439  1
  Mo  Mo47  1  6.36852721  6.29945146  -0.10510758  1
  Mo  Mo48  1  7.92977798  7.85102686  1.54072424  1
  Mo  Mo49  1  6.26127889  6.29144765  3.05563406  1
  Mo  Mo50  1  7.91834050  7.88764923  4.70178080  1
  Mo  Mo51  1  6.40578418  6.31320890  6.23724266  1
  Mo  Mo52  1  7.91762455  7.86066707  7.93465113  1
  Mo  Mo53  1  7.02620006  5.99834677  2.16158498  1
