# generated using pymatgen
data_Mo
_symmetry_space_group_name_H-M   'P 1'
_cell_length_a   9.46603805
_cell_length_b   9.46603785
_cell_length_c   9.46603779
_cell_angle_alpha   90.00000282
_cell_angle_beta   89.99999931
_cell_angle_gamma   89.99999840
_symmetry_Int_Tables_number   1
_chemical_formula_structural   Mo
_chemical_formula_sum   Mo54
_cell_volume   848.21259331
_cell_formula_units_Z   54
loop_
 _symmetry_equiv_pos_site_id
 _symmetry_equiv_pos_as_xyz
  1  'x, y, z'
loop_
 _atom_site_type_symbol
 _atom_site_label
 _atom_site_symmetry_multiplicity
 _atom_site_fract_x
 _atom_site_fract_y
 _atom_site_fract_z
 _atom_site_occupancy
  Mo  Mo0  1  1.59063283  1.56969938  1.57790638  1
  Mo  Mo1  1  -0.02681611  0.00844551  3.17373186  1
  Mo  Mo2  1  1.52961198  1.56989883  4.73389899  1
  Mo  Mo3  1  0.03490047  0.02564873  6.30611492  1
  Mo  Mo4  1  1.59031540  1.54709664  7.88921625  1
  Mo  Mo5  1  -0.03392557  3.09291783  0.05224489  1
  Mo  Mo6  1  1.62551418  4.69702618  1.56071509  1
  Mo  Mo7  1  -0.02019734  3.14105473  3.22985489  1
  Mo  Mo8  1  1.56740827  4.69162500  4.72161862  1
  Mo  Mo9  1  -0.03557046  3.10446753  6.35384960  1
  Mo  Mo10  1  1.51445576  4.68729976  7.92219445  1
  Mo  Mo11  1  0.06048472  6.35030273  0.00327086  1
  Mo  Mo12  1  1.58835352  7.93245291  1.51359478  1
  Mo  Mo13  1  0.02904015  6.26200165  3.15653555  1
  Mo  Mo14  1  1.54230613  7.87054613  4.72552894  1
  Mo  Mo15  1  0.03167171  6.31544786  6.28276597  1
  Mo  Mo16  1  1.55381505  7.88066115  7.92973134  1
  Mo  Mo17  1  3.10239231  0.04194338  0.08423360  1
  Mo  Mo18  1  4.74339857  1.54868669  1.51311391  1
  Mo  Mo19  1  3.12494299  0.03943800  3.16052004  1
  Mo  Mo20  1  4.71514150  1.59638673  4.77198503  1
  Mo  Mo21  1  3.12228611  0.07438068  6.31684453  1
  Mo  Mo22  1  4.67693526  1.56773663  7.91127695  1
  Mo  Mo23  1  3.15682898  3.17128408  -0.04680575  1
  Mo  Mo24  1  4.68932727  4.74554188  1.51260831  1
  Mo  Mo25  1  3.17485090  3.12882240  3.16863864  1
  Mo  Mo26  1  4.74821638  4.81144965  4.65926728  1
  Mo  Mo27  1  3.14312826  3.18648133  6.28785126  1
  Mo  Mo28  1  4.70143231  4.70068545  7.86469856  1
  Mo  Mo29  1  3.18350029  6.39160030  -0.05301258  1
  Mo  Mo30  1  4.72551702  7.96703342  1.53764663  1
  Mo  Mo31  1  3.15031367  6.29326266  3.16021770  1
  Mo  Mo32  1  4.76305994  7.88193234  4.76774345  1
  Mo  Mo33  1  3.21940058  6.35276012  6.32080220  1
  Mo  Mo34  1  4.77755740  7.89522261  7.98998326  1
  Mo  Mo35  1  6.32420580  0.03725449  -0.03278698  1
  Mo  Mo36  1  7.85399651  1.52046832  1.62083229  1
  Mo  Mo37  1  6.24527290  0.00685178  3.14930790  1
  Mo  Mo38  1  7.91352646  1.58222282  4.76557234  1
  Mo  Mo39  1  6.31820224  0.00498256  6.27606291  1
  Mo  Mo40  1  7.86612000  1.52599614  7.94546239  1
  Mo  Mo41  1  6.29282191  3.10816029  -0.05533121  1
  Mo  Mo42  1  8.00638995  4.71277312  1.56216394  1
  Mo  Mo43  1  6.28044255  3.12788362  3.17174655  1
  Mo  Mo44  1  7.88535288  4.70319751  4.77463875  1
  Mo  Mo45  1  6.36281823  3.20626213  6.24309228  1
  Mo  Mo46  1  7.89161375  4.70036807  7.92964383  1
  Mo  Mo47  1  6.34920404  6.26236530  -0.05486535  1
  Mo  Mo48  1  7.92133358  7.91670676  1.58950605  1
  Mo  Mo49  1  6.32178017  6.32719113  3.16186160  1
  Mo  Mo50  1  7.88330083  7.94271677  4.70609185  1
  Mo  Mo51  1  6.29805609  6.29978840  6.26205560  1
  Mo  Mo52  1  7.91119591  7.85942325  7.91040909  1
  Mo  Mo53  1  2.76763110  7.42234970  9.44812568  1
