# generated using pymatgen
data_Mo
_symmetry_space_group_name_H-M   'P 1'
_cell_length_a   9.46603805
_cell_length_b   9.46603785
_cell_length_c   9.46603779
_cell_angle_alpha   90.00000282
_cell_angle_beta   89.99999931
_cell_angle_gamma   89.99999840
_symmetry_Int_Tables_number   1
_chemical_formula_structural   Mo
_chemical_formula_sum   Mo54
_cell_volume   848.21259331
_cell_formula_units_Z   54
loop_
 _symmetry_equiv_pos_site_id
 _symmetry_equiv_pos_as_xyz
  1  'x, y, z'
loop_
 _atom_site_type_symbol
 _atom_site_label
 _atom_site_symmetry_multiplicity
 _atom_site_fract_x
 _atom_site_fract_y
 _atom_site_fract_z
 _atom_site_occupancy
  Mo  Mo0  1  1.53402543  1.58495120  1.52969309  1
  Mo  Mo1  1  0.02248213  0.00856588  3.18053355  1
  Mo  Mo2  1  1.57288334  1.61072442  4.71074870  1
  Mo  Mo3  1  0.03826902  0.04107685  6.30411957  1
  Mo  Mo4  1  1.58435507  1.51293996  7.93877392  1
  Mo  Mo5  1  0.00733627  3.14949780  0.01068238  1
  Mo  Mo6  1  1.64521977  4.71521055  1.50488581  1
  Mo  Mo7  1  0.00142101  3.13693737  3.16609375  1
  Mo  Mo8  1  1.55682845  4.67481742  4.73659461  1
  Mo  Mo9  1  -0.01649243  3.10280471  6.39001440  1
  Mo  Mo10  1  1.52305828  4.67376435  7.83050445  1
  Mo  Mo11  1  0.02401624  6.37365562  -0.00687743  1
  Mo  Mo12  1  1.52893954  7.91594656  1.50778666  1
  Mo  Mo13  1  0.05092677  6.27178518  3.20301482  1
  Mo  Mo14  1  1.57560395  7.83851792  4.71969567  1
  Mo  Mo15  1  -0.01569404  6.33683178  6.29910024  1
  Mo  Mo16  1  1.52208370  7.87470219  7.93684737  1
  Mo  Mo17  1  3.09672883  0.02594566  0.05181280  1
  Mo  Mo18  1  4.73943687  1.57798537  1.55417561  1
  Mo  Mo19  1  3.12732525  -0.01335246  3.20317339  1
  Mo  Mo20  1  4.73646983  1.57442980  4.75905415  1
  Mo  Mo21  1  3.13405327  0.02607822  6.29202290  1
  Mo  Mo22  1  4.70961501  1.54162272  7.84501427  1
  Mo  Mo23  1  3.13660129  3.16938737  -0.02126300  1
  Mo  Mo24  1  4.70776992  4.71999199  1.53625922  1
  Mo  Mo25  1  3.17594439  3.08690193  3.17460463  1
  Mo  Mo26  1  4.70879734  4.75789909  4.63064919  1
  Mo  Mo27  1  3.15645385  3.16528931  6.26837784  1
  Mo  Mo28  1  4.69227425  4.64401712  7.85247418  1
  Mo  Mo29  1  3.17137445  6.39675253  -0.02345228  1
  Mo  Mo30  1  4.74387372  7.94147432  1.56472338  1
  Mo  Mo31  1  3.14460957  6.33713562  3.17476705  1
  Mo  Mo32  1  4.72772626  7.94491753  4.75739478  1
  Mo  Mo33  1  3.17223800  6.35199195  6.32075153  1
  Mo  Mo34  1  4.78577918  7.86246239  7.98465394  1
  Mo  Mo35  1  6.31745973  0.04240177  -0.05489868  1
  Mo  Mo36  1  7.90439979  1.55178014  1.55168596  1
  Mo  Mo37  1  6.28115623  0.01279342  3.15010030  1
  Mo  Mo38  1  7.90812664  1.60422061  4.77920382  1
  Mo  Mo39  1  6.30824546  0.06944537  6.29740228  1
  Mo  Mo40  1  7.94624126  1.52556987  7.95708310  1
  Mo  Mo41  1  6.29263192  3.13312409  -0.02453897  1
  Mo  Mo42  1  7.96142236  4.73545095  1.56330832  1
  Mo  Mo43  1  6.30987405  3.09652086  3.14600764  1
  Mo  Mo44  1  7.87508975  4.71378402  4.75045948  1
  Mo  Mo45  1  6.33541143  3.17727605  6.27718123  1
  Mo  Mo46  1  7.85326922  4.69609780  7.91010370  1
  Mo  Mo47  1  6.33918877  6.27482758  0.03752158  1
  Mo  Mo48  1  7.92272214  7.95112501  1.58895494  1
  Mo  Mo49  1  6.36970744  6.33051192  3.15141664  1
  Mo  Mo50  1  7.87926488  7.93502970  4.75047679  1
  Mo  Mo51  1  6.27829837  6.31514162  6.34332079  1
  Mo  Mo52  1  7.88102102  7.88709233  7.92365619  1
  Mo  Mo53  1  8.75416632  6.54598769  1.37644400  1
