# generated using pymatgen
data_Mo
_symmetry_space_group_name_H-M   'P 1'
_cell_length_a   9.46603805
_cell_length_b   9.46603785
_cell_length_c   9.46603779
_cell_angle_alpha   90.00000282
_cell_angle_beta   89.99999931
_cell_angle_gamma   89.99999840
_symmetry_Int_Tables_number   1
_chemical_formula_structural   Mo
_chemical_formula_sum   Mo54
_cell_volume   848.21259331
_cell_formula_units_Z   54
loop_
 _symmetry_equiv_pos_site_id
 _symmetry_equiv_pos_as_xyz
  1  'x, y, z'
loop_
 _atom_site_type_symbol
 _atom_site_label
 _atom_site_symmetry_multiplicity
 _atom_site_fract_x
 _atom_site_fract_y
 _atom_site_fract_z
 _atom_site_occupancy
  Mo  Mo0  1  1.52026170  1.58187061  1.51017242  1
  Mo  Mo1  1  0.03625639  -0.00127141  3.16970960  1
  Mo  Mo2  1  1.59525537  1.59407894  4.70618938  1
  Mo  Mo3  1  0.03050420  0.03213606  6.31174056  1
  Mo  Mo4  1  1.56074484  1.50192564  7.95269294  1
  Mo  Mo5  1  0.02574110  3.17091442  -0.00903995  1
  Mo  Mo6  1  1.63147443  4.73907647  1.47744408  1
  Mo  Mo7  1  0.01023698  3.14047666  3.14241150  1
  Mo  Mo8  1  1.55213491  4.68089177  4.73672492  1
  Mo  Mo9  1  0.00376239  3.13699554  6.38377567  1
  Mo  Mo10  1  1.53106479  4.68353221  7.80818950  1
  Mo  Mo11  1  -0.00794082  6.37176439  -0.01346003  1
  Mo  Mo12  1  1.49550910  7.90625743  1.52945941  1
  Mo  Mo13  1  0.05086430  6.28277505  3.21621974  1
  Mo  Mo14  1  1.57779554  7.83881782  4.71991929  1
  Mo  Mo15  1  -0.03567876  6.33895773  6.30180999  1
  Mo  Mo16  1  1.51767842  7.87200288  7.92173154  1
  Mo  Mo17  1  3.10644767  0.01656112  0.01306881  1
  Mo  Mo18  1  4.72901051  1.59187954  1.56375166  1
  Mo  Mo19  1  3.12943649  -0.04043275  3.23033886  1
  Mo  Mo20  1  4.75061762  1.56130673  4.72966625  1
  Mo  Mo21  1  3.16053919  -0.00772290  6.28935175  1
  Mo  Mo22  1  4.73835110  1.52063535  7.82789210  1
  Mo  Mo23  1  3.13151036  3.17279142  -0.00419301  1
  Mo  Mo24  1  4.74008192  4.71298101  1.54676841  1
  Mo  Mo25  1  3.16836880  3.10345358  3.16485411  1
  Mo  Mo26  1  4.69903719  4.72068072  4.64669728  1
  Mo  Mo27  1  3.16583993  3.15427354  6.26242133  1
  Mo  Mo28  1  4.69905600  4.64556998  7.86251286  1
  Mo  Mo29  1  3.16923557  6.36987012  0.00335243  1
  Mo  Mo30  1  4.75029117  7.92180800  1.58746330  1
  Mo  Mo31  1  3.15718070  6.35358126  3.17286919  1
  Mo  Mo32  1  4.70619391  7.96380363  4.74765201  1
  Mo  Mo33  1  3.13914115  6.33737057  6.30496459  1
  Mo  Mo34  1  4.76525123  7.85650584  7.96743125  1
  Mo  Mo35  1  6.32488391  0.01642498  -0.04236316  1
  Mo  Mo36  1  7.93471355  1.58059274  1.51524959  1
  Mo  Mo37  1  6.30486599  0.00648000  3.16207463  1
  Mo  Mo38  1  7.90754965  1.60431366  4.77120382  1
  Mo  Mo39  1  6.31045936  0.08285025  6.30993072  1
  Mo  Mo40  1  7.98425445  1.52773525  7.95632483  1
  Mo  Mo41  1  6.29319709  3.15290419  -0.00516564  1
  Mo  Mo42  1  7.92646020  4.74738667  1.56856154  1
  Mo  Mo43  1  6.32768079  3.11190139  3.13485592  1
  Mo  Mo44  1  7.88107312  4.73762816  4.72984732  1
  Mo  Mo45  1  6.29281492  3.15563816  6.30236983  1
  Mo  Mo46  1  7.84197836  4.69962469  7.92077955  1
  Mo  Mo47  1  6.32781214  6.28534623  0.07273431  1
  Mo  Mo48  1  7.92704748  7.96245176  1.58398875  1
  Mo  Mo49  1  6.37446333  6.32636999  3.14848458  1
  Mo  Mo50  1  7.88287991  7.92970591  4.77087387  1
  Mo  Mo51  1  6.28127964  6.32443247  6.36623605  1
  Mo  Mo52  1  7.86119504  7.90794791  7.93730994  1
  Mo  Mo53  1  5.42674464  3.62160302  1.77913603  1
