# generated using pymatgen
data_Mo
_symmetry_space_group_name_H-M   'P 1'
_cell_length_a   9.46603805
_cell_length_b   9.46603785
_cell_length_c   9.46603779
_cell_angle_alpha   90.00000282
_cell_angle_beta   89.99999931
_cell_angle_gamma   89.99999840
_symmetry_Int_Tables_number   1
_chemical_formula_structural   Mo
_chemical_formula_sum   Mo54
_cell_volume   848.21259331
_cell_formula_units_Z   54
loop_
 _symmetry_equiv_pos_site_id
 _symmetry_equiv_pos_as_xyz
  1  'x, y, z'
loop_
 _atom_site_type_symbol
 _atom_site_label
 _atom_site_symmetry_multiplicity
 _atom_site_fract_x
 _atom_site_fract_y
 _atom_site_fract_z
 _atom_site_occupancy
  Mo  Mo0  1  1.52531851  1.56984434  1.49463824  1
  Mo  Mo1  1  0.03684315  -0.01314934  3.15646436  1
  Mo  Mo2  1  1.60466112  1.55693148  4.70893093  1
  Mo  Mo3  1  0.02183585  0.01589578  6.32286755  1
  Mo  Mo4  1  1.53566155  1.49590461  7.94854924  1
  Mo  Mo5  1  0.03544813  3.18692371  -0.02358251  1
  Mo  Mo6  1  1.60426275  4.76680075  1.46164198  1
  Mo  Mo7  1  0.01671805  3.15007497  3.13518555  1
  Mo  Mo8  1  1.54858353  4.69299469  4.72371619  1
  Mo  Mo9  1  0.02089882  3.18282029  6.35620875  1
  Mo  Mo10  1  1.53950148  4.70292109  7.80887256  1
  Mo  Mo11  1  -0.03932121  6.36214425  -0.01864363  1
  Mo  Mo12  1  1.47384933  7.90271739  1.55371990  1
  Mo  Mo13  1  0.04227719  6.29308869  3.21431454  1
  Mo  Mo14  1  1.56285355  7.85249922  4.72642095  1
  Mo  Mo15  1  -0.05061495  6.33580902  6.30132225  1
  Mo  Mo16  1  1.52021760  7.86945561  7.89925781  1
  Mo  Mo17  1  3.12257229  0.00292463  -0.01840290  1
  Mo  Mo18  1  4.71694594  1.59346939  1.55472072  1
  Mo  Mo19  1  3.13224707  -0.05481663  3.24005296  1
  Mo  Mo20  1  4.76385686  1.55303793  4.69166903  1
  Mo  Mo21  1  3.19041498  -0.03686721  6.29848122  1
  Mo  Mo22  1  4.76224265  1.50073672  7.83354629  1
  Mo  Mo23  1  3.13579719  3.17622896  0.00970076  1
  Mo  Mo24  1  4.77293008  4.71452452  1.55829015  1
  Mo  Mo25  1  3.15661722  3.13955810  3.14801582  1
  Mo  Mo26  1  4.70283620  4.69338278  4.67901214  1
  Mo  Mo27  1  3.17381875  3.14124450  6.26472210  1
  Mo  Mo28  1  4.70802367  4.66555384  7.88237274  1
  Mo  Mo29  1  3.16909946  6.33323709  0.03012574  1
  Mo  Mo30  1  4.75087806  7.90928562  1.60613656  1
  Mo  Mo31  1  3.17651843  6.35347204  3.16550439  1
  Mo  Mo32  1  4.69969519  7.95665435  4.73917511  1
  Mo  Mo33  1  3.11400317  6.31363655  6.28703140  1
  Mo  Mo34  1  4.73392246  7.85710851  7.94589652  1
  Mo  Mo35  1  6.33188098  -0.01540216  -0.01414706  1
  Mo  Mo36  1  7.95999820  1.61034358  1.48643076  1
  Mo  Mo37  1  6.32856068  -0.00304111  3.17389049  1
  Mo  Mo38  1  7.91676823  1.60313980  4.75429934  1
  Mo  Mo39  1  6.32106018  0.07314753  6.31858479  1
  Mo  Mo40  1  8.01126044  1.53209050  7.95215261  1
  Mo  Mo41  1  6.29304954  3.16575680  0.01202029  1
  Mo  Mo42  1  7.90028611  4.75585796  1.57329916  1
  Mo  Mo43  1  6.34484598  3.14214063  3.13304462  1
  Mo  Mo44  1  7.88735299  4.75985615  4.71564505  1
  Mo  Mo45  1  6.25458117  3.14060275  6.32323700  1
  Mo  Mo46  1  7.83756711  4.70739449  7.93651078  1
  Mo  Mo47  1  6.30964466  6.29624630  0.08975714  1
  Mo  Mo48  1  7.93130510  7.96946057  1.57926624  1
  Mo  Mo49  1  6.36262887  6.32087922  3.16151354  1
  Mo  Mo50  1  7.88557633  7.92913792  4.78445908  1
  Mo  Mo51  1  6.28478230  6.33070908  6.37000825  1
  Mo  Mo52  1  7.84330125  7.93148509  7.94994274  1
  Mo  Mo53  1  5.99443475  4.48749437  0.52340525  1
