# generated using pymatgen
data_Mo
_symmetry_space_group_name_H-M   'P 1'
_cell_length_a   9.46603805
_cell_length_b   9.46603785
_cell_length_c   9.46603779
_cell_angle_alpha   90.00000282
_cell_angle_beta   89.99999931
_cell_angle_gamma   89.99999840
_symmetry_Int_Tables_number   1
_chemical_formula_structural   Mo
_chemical_formula_sum   Mo54
_cell_volume   848.21259331
_cell_formula_units_Z   54
loop_
 _symmetry_equiv_pos_site_id
 _symmetry_equiv_pos_as_xyz
  1  'x, y, z'
loop_
 _atom_site_type_symbol
 _atom_site_label
 _atom_site_symmetry_multiplicity
 _atom_site_fract_x
 _atom_site_fract_y
 _atom_site_fract_z
 _atom_site_occupancy
  Mo  Mo0  1  1.60154216  1.52719961  1.47544990  1
  Mo  Mo1  1  -0.01931129  -0.01054187  3.12796345  1
  Mo  Mo2  1  1.57627345  1.44252619  4.73892935  1
  Mo  Mo3  1  0.00354130  -0.02186318  6.36227117  1
  Mo  Mo4  1  1.52436622  1.51564826  7.85387727  1
  Mo  Mo5  1  0.01679650  3.18837099  -0.03086842  1
  Mo  Mo6  1  1.51215929  4.79696739  1.51610010  1
  Mo  Mo7  1  0.02412571  3.19212999  3.17933394  1
  Mo  Mo8  1  1.55898487  4.73739177  4.64258568  1
  Mo  Mo9  1  0.01567410  3.27038312  6.24062476  1
  Mo  Mo10  1  1.54345652  4.76595652  7.88509984  1
  Mo  Mo11  1  -0.05891157  6.33143916  -0.02534681  1
  Mo  Mo12  1  1.51746461  7.92920198  1.56732363  1
  Mo  Mo13  1  -0.02938723  6.31068931  3.11790790  1
  Mo  Mo14  1  1.48050328  7.90941526  4.75194090  1
  Mo  Mo15  1  -0.05147393  6.30498014  6.28854169  1
  Mo  Mo16  1  1.53505787  7.87284162  7.86165823  1
  Mo  Mo17  1  3.15537232  -0.05846838  -0.00382412  1
  Mo  Mo18  1  4.71238670  1.54864732  1.46490843  1
  Mo  Mo19  1  3.15563628  -0.01114622  3.14190078  1
  Mo  Mo20  1  4.77773543  1.55177141  4.62434614  1
  Mo  Mo21  1  3.24511250  -0.05581325  6.34368203  1
  Mo  Mo22  1  4.76214504  1.48374784  7.92640956  1
  Mo  Mo23  1  3.17704765  3.17941664  0.01735052  1
  Mo  Mo24  1  4.78074330  4.76635186  1.60881999  1
  Mo  Mo25  1  3.13276570  3.22857974  3.10873025  1
  Mo  Mo26  1  4.75238535  4.70378432  4.79912594  1
  Mo  Mo27  1  3.17323666  3.10248362  6.31884426  1
  Mo  Mo28  1  4.71664588  4.75239939  7.95570453  1
  Mo  Mo29  1  3.16756068  6.26832501  0.04458162  1
  Mo  Mo30  1  4.71591181  7.94444595  1.61383611  1
  Mo  Mo31  1  3.20306528  6.26867017  3.15360252  1
  Mo  Mo32  1  4.75784882  7.83870830  4.74173304  1
  Mo  Mo33  1  3.13263743  6.23007989  6.27818800  1
  Mo  Mo34  1  4.65730097  7.86594761  7.89825895  1
  Mo  Mo35  1  6.32707298  -0.05009344  0.08085784  1
  Mo  Mo36  1  7.98700919  1.64762126  1.48524789  1
  Mo  Mo37  1  6.35469083  -0.01202546  3.15761356  1
  Mo  Mo38  1  7.99330757  1.61169470  4.69641717  1
  Mo  Mo39  1  6.37002396  -0.03723696  6.30427664  1
  Mo  Mo40  1  7.99288770  1.56407582  7.92391612  1
  Mo  Mo41  1  6.28963704  3.13120555  0.03103370  1
  Mo  Mo42  1  7.92790000  4.76695122  1.57347095  1
  Mo  Mo43  1  6.35310440  3.21012322  3.17960294  1
  Mo  Mo44  1  7.89258065  4.77021311  4.75423535  1
  Mo  Mo45  1  6.27579995  3.14410846  6.34007130  1
  Mo  Mo46  1  7.85779403  4.75372319  7.94255208  1
  Mo  Mo47  1  6.25444953  6.30900400  0.03579308  1
  Mo  Mo48  1  7.91448498  7.95722609  1.58458993  1
  Mo  Mo49  1  6.28062405  6.31316059  3.26051711  1
  Mo  Mo50  1  7.87911793  7.95882369  4.76895777  1
  Mo  Mo51  1  6.27118964  6.30572833  6.32314639  1
  Mo  Mo52  1  7.83779015  7.97088249  7.95395931  1
  Mo  Mo53  1  7.13998973  3.05763976  4.56308665  1
