# generated using pymatgen
data_Mo
_symmetry_space_group_name_H-M   'P 1'
_cell_length_a   9.46603805
_cell_length_b   9.46603785
_cell_length_c   9.46603779
_cell_angle_alpha   90.00000282
_cell_angle_beta   89.99999931
_cell_angle_gamma   89.99999840
_symmetry_Int_Tables_number   1
_chemical_formula_structural   Mo
_chemical_formula_sum   Mo54
_cell_volume   848.21259331
_cell_formula_units_Z   54
loop_
 _symmetry_equiv_pos_site_id
 _symmetry_equiv_pos_as_xyz
  1  'x, y, z'
loop_
 _atom_site_type_symbol
 _atom_site_label
 _atom_site_symmetry_multiplicity
 _atom_site_fract_x
 _atom_site_fract_y
 _atom_site_fract_z
 _atom_site_occupancy
  Mo  Mo0  1  1.61149965  1.54565715  1.48966850  1
  Mo  Mo1  1  -0.03715808  0.01854321  3.11333786  1
  Mo  Mo2  1  1.58028744  1.44534972  4.73478770  1
  Mo  Mo3  1  -0.00440872  -0.00973573  6.37978959  1
  Mo  Mo4  1  1.57371336  1.55288785  7.82091232  1
  Mo  Mo5  1  -0.00208540  3.14273604  -0.01999842  1
  Mo  Mo6  1  1.52051998  4.75462579  1.56053077  1
  Mo  Mo7  1  0.00740634  3.18674771  3.17648565  1
  Mo  Mo8  1  1.58000720  4.76035821  4.66069126  1
  Mo  Mo9  1  -0.00839053  3.22915402  6.25480824  1
  Mo  Mo10  1  1.52476847  4.76672956  7.91052612  1
  Mo  Mo11  1  -0.00386328  6.33650786  -0.03196866  1
  Mo  Mo12  1  1.58614511  7.94272642  1.53281690  1
  Mo  Mo13  1  -0.07350875  6.31971605  3.06177891  1
  Mo  Mo14  1  1.48341187  7.90780454  4.73276631  1
  Mo  Mo15  1  -0.01513981  6.28952647  6.26713159  1
  Mo  Mo16  1  1.53206073  7.89796292  7.88636638  1
  Mo  Mo17  1  3.12346833  -0.06222154  0.01911735  1
  Mo  Mo18  1  4.75020755  1.55967730  1.46304559  1
  Mo  Mo19  1  3.17096971  0.02108917  3.09931680  1
  Mo  Mo20  1  4.76243613  1.54134537  4.67303013  1
  Mo  Mo21  1  3.24177518  -0.03297744  6.31942535  1
  Mo  Mo22  1  4.73667652  1.50437779  7.92469824  1
  Mo  Mo23  1  3.17140521  3.18529709  0.01004307  1
  Mo  Mo24  1  4.73385008  4.78720735  1.62911796  1
  Mo  Mo25  1  3.16042458  3.18836137  3.13247697  1
  Mo  Mo26  1  4.74771805  4.70747813  4.83023680  1
  Mo  Mo27  1  3.16707486  3.10302349  6.35457980  1
  Mo  Mo28  1  4.71024942  4.74104042  7.97684913  1
  Mo  Mo29  1  3.14681611  6.29885892  0.00987419  1
  Mo  Mo30  1  4.69676659  7.96583084  1.59725301  1
  Mo  Mo31  1  3.15768173  6.24452136  3.17971950  1
  Mo  Mo32  1  4.74386293  7.84344957  4.75592165  1
  Mo  Mo33  1  3.16884973  6.22182537  6.31098549  1
  Mo  Mo34  1  4.68095017  7.87245506  7.90664328  1
  Mo  Mo35  1  6.33235348  -0.00959425  0.03903938  1
  Mo  Mo36  1  7.97529003  1.61553068  1.54775072  1
  Mo  Mo37  1  6.31168644  0.01315819  3.12205979  1
  Mo  Mo38  1  8.01510958  1.61138280  4.69427244  1
  Mo  Mo39  1  6.35815582  -0.06126743  6.27563206  1
  Mo  Mo40  1  7.91550172  1.58957320  7.89857926  1
  Mo  Mo41  1  6.29406014  3.11014610  0.03047493  1
  Mo  Mo42  1  7.95747212  4.76747873  1.56961949  1
  Mo  Mo43  1  6.31073477  3.18338251  3.19652526  1
  Mo  Mo44  1  7.89811238  4.76119968  4.79395316  1
  Mo  Mo45  1  6.35885380  3.14281651  6.33836175  1
  Mo  Mo46  1  7.88224217  4.78336809  7.92255349  1
  Mo  Mo47  1  6.27683571  6.28635119  -0.00381683  1
  Mo  Mo48  1  7.87067063  7.92362004  1.59738843  1
  Mo  Mo49  1  6.26713741  6.30343784  3.24949345  1
  Mo  Mo50  1  7.88872305  7.97509452  4.72962218  1
  Mo  Mo51  1  6.27259277  6.26331639  6.32995962  1
  Mo  Mo52  1  7.87388375  7.94892118  7.93161631  1
  Mo  Mo53  1  4.45083661  9.35573113  3.38955197  1
