# generated using pymatgen
data_Mo
_symmetry_space_group_name_H-M   'P 1'
_cell_length_a   9.46603805
_cell_length_b   9.46603785
_cell_length_c   9.46603779
_cell_angle_alpha   90.00000282
_cell_angle_beta   89.99999931
_cell_angle_gamma   89.99999840
_symmetry_Int_Tables_number   1
_chemical_formula_structural   Mo
_chemical_formula_sum   Mo54
_cell_volume   848.21259331
_cell_formula_units_Z   54
loop_
 _symmetry_equiv_pos_site_id
 _symmetry_equiv_pos_as_xyz
  1  'x, y, z'
loop_
 _atom_site_type_symbol
 _atom_site_label
 _atom_site_symmetry_multiplicity
 _atom_site_fract_x
 _atom_site_fract_y
 _atom_site_fract_z
 _atom_site_occupancy
  Mo  Mo0  1  1.57879107  1.59209814  1.52629105  1
  Mo  Mo1  1  -0.00548270  0.01366207  3.09276515  1
  Mo  Mo2  1  1.61028008  1.52018984  4.70377332  1
  Mo  Mo3  1  0.00241238  0.01936623  6.36653268  1
  Mo  Mo4  1  1.62015441  1.57884749  7.84938867  1
  Mo  Mo5  1  -0.01999250  3.08688773  -0.00078711  1
  Mo  Mo6  1  1.59997090  4.71237263  1.54711109  1
  Mo  Mo7  1  -0.02328764  3.14979726  3.14288143  1
  Mo  Mo8  1  1.58031128  4.74488458  4.75018507  1
  Mo  Mo9  1  -0.01492064  3.13970952  6.34233322  1
  Mo  Mo10  1  1.52028477  4.73968489  7.88851795  1
  Mo  Mo11  1  0.04643921  6.34917060  -0.03545190  1
  Mo  Mo12  1  1.60501596  7.93487629  1.51755868  1
  Mo  Mo13  1  -0.06018495  6.31734785  3.07420246  1
  Mo  Mo14  1  1.53817474  7.88612168  4.69792739  1
  Mo  Mo15  1  0.02874217  6.31479350  6.24621642  1
  Mo  Mo16  1  1.53025723  7.92704590  7.91223568  1
  Mo  Mo17  1  3.09405120  0.01269408  -0.02527962  1
  Mo  Mo18  1  4.77727306  1.62101811  1.53022454  1
  Mo  Mo19  1  3.16200688  0.00656088  3.14425596  1
  Mo  Mo20  1  4.74812001  1.53432695  4.75839723  1
  Mo  Mo21  1  3.19434591  -0.02167545  6.27537103  1
  Mo  Mo22  1  4.73150934  1.53636545  7.85324838  1
  Mo  Mo23  1  3.13383763  3.18859268  0.02145457  1
  Mo  Mo24  1  4.70689515  4.76713433  1.61573862  1
  Mo  Mo25  1  3.19731139  3.10969816  3.19419689  1
  Mo  Mo26  1  4.71717784  4.67930694  4.80190390  1
  Mo  Mo27  1  3.16800455  3.13422392  6.35062930  1
  Mo  Mo28  1  4.71455532  4.68242163  7.96063290  1
  Mo  Mo29  1  3.14072467  6.34022842  -0.00058362  1
  Mo  Mo30  1  4.70154334  7.94143820  1.58134019  1
  Mo  Mo31  1  3.10277312  6.29492529  3.20585289  1
  Mo  Mo32  1  4.68185598  7.91867434  4.75822385  1
  Mo  Mo33  1  3.17207443  6.27222267  6.34239760  1
  Mo  Mo34  1  4.74272892  7.88799601  7.94167215  1
  Mo  Mo35  1  6.35395361  0.02131489  -0.07835829  1
  Mo  Mo36  1  7.94856546  1.57835853  1.60256183  1
  Mo  Mo37  1  6.25393609  0.02807218  3.11289654  1
  Mo  Mo38  1  7.97424291  1.59494816  4.73267633  1
  Mo  Mo39  1  6.32024468  -0.02255139  6.25548982  1
  Mo  Mo40  1  7.85951365  1.59196810  7.88643223  1
  Mo  Mo41  1  6.30085520  3.13704426  0.02611161  1
  Mo  Mo42  1  7.93071284  4.74833187  1.57807875  1
  Mo  Mo43  1  6.26692348  3.14014379  3.18792093  1
  Mo  Mo44  1  7.91092158  4.76280911  4.76402990  1
  Mo  Mo45  1  6.37572845  3.12891708  6.33441385  1
  Mo  Mo46  1  7.90970423  4.77760442  7.93002485  1
  Mo  Mo47  1  6.33334805  6.25468251  -0.00118014  1
  Mo  Mo48  1  7.83100901  7.90610617  1.59847461  1
  Mo  Mo49  1  6.27820665  6.28241848  3.16002441  1
  Mo  Mo50  1  7.90010100  7.96734503  4.70981187  1
  Mo  Mo51  1  6.30086256  6.24913041  6.35461478  1
  Mo  Mo52  1  7.91328037  7.90620095  7.90046836  1
  Mo  Mo53  1  8.72173672  1.64119378  0.44584114  1
