# generated using pymatgen
data_Mo
_symmetry_space_group_name_H-M   'P 1'
_cell_length_a   9.46603805
_cell_length_b   9.46603785
_cell_length_c   9.46603779
_cell_angle_alpha   90.00000282
_cell_angle_beta   89.99999931
_cell_angle_gamma   89.99999840
_symmetry_Int_Tables_number   1
_chemical_formula_structural   Mo
_chemical_formula_sum   Mo54
_cell_volume   848.21259331
_cell_formula_units_Z   54
loop_
 _symmetry_equiv_pos_site_id
 _symmetry_equiv_pos_as_xyz
  1  'x, y, z'
loop_
 _atom_site_type_symbol
 _atom_site_label
 _atom_site_symmetry_multiplicity
 _atom_site_fract_x
 _atom_site_fract_y
 _atom_site_fract_z
 _atom_site_occupancy
  Mo  Mo0  1  1.56809239  1.61155250  1.57071932  1
  Mo  Mo1  1  0.02643140  -0.02784440  3.08786905  1
  Mo  Mo2  1  1.61065038  1.60502556  4.68884712  1
  Mo  Mo3  1  0.02371561  0.03630320  6.31547368  1
  Mo  Mo4  1  1.62133120  1.58261313  7.88978703  1
  Mo  Mo5  1  -0.03912058  3.06750554  0.02784304  1
  Mo  Mo6  1  1.65109547  4.70629091  1.51638816  1
  Mo  Mo7  1  -0.03923399  3.11738548  3.14728812  1
  Mo  Mo8  1  1.55286944  4.69618744  4.80127251  1
  Mo  Mo9  1  -0.00624935  3.09202157  6.39934496  1
  Mo  Mo10  1  1.54183308  4.71811228  7.86130369  1
  Mo  Mo11  1  0.04968920  6.34847342  -0.02457362  1
  Mo  Mo12  1  1.57727786  7.92196641  1.53320634  1
  Mo  Mo13  1  0.00175209  6.28359147  3.12716190  1
  Mo  Mo14  1  1.57484231  7.88663043  4.68889905  1
  Mo  Mo15  1  0.04519880  6.36166882  6.25255658  1
  Mo  Mo16  1  1.54661610  7.93652295  7.90579128  1
  Mo  Mo17  1  3.12026485  0.11030775  -0.05898316  1
  Mo  Mo18  1  4.76079107  1.64674665  1.57940612  1
  Mo  Mo19  1  3.13549940  -0.02404143  3.19094500  1
  Mo  Mo20  1  4.75123920  1.55404709  4.79254869  1
  Mo  Mo21  1  3.11573079  -0.01676924  6.27504203  1
  Mo  Mo22  1  4.74231293  1.56436282  7.81523726  1
  Mo  Mo23  1  3.11719425  3.17657226  0.04254882  1
  Mo  Mo24  1  4.70755769  4.73227090  1.58386427  1
  Mo  Mo25  1  3.18849270  3.09327844  3.24428989  1
  Mo  Mo26  1  4.71214303  4.69694780  4.74590797  1
  Mo  Mo27  1  3.15886968  3.17397877  6.31866816  1
  Mo  Mo28  1  4.73894891  4.66901773  7.91611968  1
  Mo  Mo29  1  3.18410668  6.35964325  0.02134183  1
  Mo  Mo30  1  4.71524056  7.92219393  1.55984270  1
  Mo  Mo31  1  3.10214259  6.33856581  3.20310627  1
  Mo  Mo32  1  4.66746294  7.93192456  4.75146945  1
  Mo  Mo33  1  3.16603416  6.34058002  6.35593842  1
  Mo  Mo34  1  4.78404928  7.89251888  7.96032449  1
  Mo  Mo35  1  6.35252110  0.00988523  -0.13629717  1
  Mo  Mo36  1  7.90518211  1.56386902  1.61075626  1
  Mo  Mo37  1  6.23250185  -0.00251408  3.12826247  1
  Mo  Mo38  1  7.91636808  1.57363565  4.77786313  1
  Mo  Mo39  1  6.30406309  0.00285341  6.25060613  1
  Mo  Mo40  1  7.87293998  1.56582538  7.89824987  1
  Mo  Mo41  1  6.29809742  3.17461843  0.00925703  1
  Mo  Mo42  1  7.90156429  4.71214743  1.59334339  1
  Mo  Mo43  1  6.26575756  3.13094290  3.18429535  1
  Mo  Mo44  1  7.91825343  4.75961748  4.69984464  1
  Mo  Mo45  1  6.30726054  3.14072641  6.31014713  1
  Mo  Mo46  1  7.93252683  4.72231628  7.95251372  1
  Mo  Mo47  1  6.36121289  6.25457163  0.00904853  1
  Mo  Mo48  1  7.83153042  7.91051421  1.59354269  1
  Mo  Mo49  1  6.26180209  6.27623606  3.09562309  1
  Mo  Mo50  1  7.88301188  7.93677740  4.72426444  1
  Mo  Mo51  1  6.33314706  6.27590203  6.32265772  1
  Mo  Mo52  1  7.93325151  7.87177575  7.87507570  1
  Mo  Mo53  1  1.34189922  0.33612629  8.13262882  1
