# generated using pymatgen
data_Mo
_symmetry_space_group_name_H-M   'P 1'
_cell_length_a   9.46603805
_cell_length_b   9.46603785
_cell_length_c   9.46603779
_cell_angle_alpha   90.00000282
_cell_angle_beta   89.99999931
_cell_angle_gamma   89.99999840
_symmetry_Int_Tables_number   1
_chemical_formula_structural   Mo
_chemical_formula_sum   Mo54
_cell_volume   848.21259331
_cell_formula_units_Z   54
loop_
 _symmetry_equiv_pos_site_id
 _symmetry_equiv_pos_as_xyz
  1  'x, y, z'
loop_
 _atom_site_type_symbol
 _atom_site_label
 _atom_site_symmetry_multiplicity
 _atom_site_fract_x
 _atom_site_fract_y
 _atom_site_fract_z
 _atom_site_occupancy
  Mo  Mo0  1  1.60172006  1.58869597  1.59445597  1
  Mo  Mo1  1  0.00538693  -0.06184182  3.11059637  1
  Mo  Mo2  1  1.55902300  1.61279546  4.72069888  1
  Mo  Mo3  1  0.03218927  0.02365257  6.26938869  1
  Mo  Mo4  1  1.56744082  1.58315645  7.90482035  1
  Mo  Mo5  1  -0.03671538  3.09249342  0.05542688  1
  Mo  Mo6  1  1.60976936  4.73208557  1.51355267  1
  Mo  Mo7  1  -0.02856243  3.10815249  3.20237478  1
  Mo  Mo8  1  1.52871597  4.67477641  4.75828069  1
  Mo  Mo9  1  -0.00909225  3.13851637  6.36676147  1
  Mo  Mo10  1  1.56358721  4.71837159  7.87769053  1
  Mo  Mo11  1  0.02680740  6.34042908  -0.00259016  1
  Mo  Mo12  1  1.55018679  7.92022370  1.54395680  1
  Mo  Mo13  1  0.05660708  6.23640153  3.17199967  1
  Mo  Mo14  1  1.54495524  7.90856524  4.71816816  1
  Mo  Mo15  1  0.02930045  6.37172030  6.28794248  1
  Mo  Mo16  1  1.57901942  7.91375121  7.88946652  1
  Mo  Mo17  1  3.16671909  0.12034740  -0.01594810  1
  Mo  Mo18  1  4.73291587  1.59758835  1.56456513  1
  Mo  Mo19  1  3.12201841  -0.02411150  3.18572917  1
  Mo  Mo20  1  4.75310817  1.57690715  4.74180157  1
  Mo  Mo21  1  3.08668136  0.01249830  6.31579534  1
  Mo  Mo22  1  4.76088236  1.56853091  7.85937118  1
  Mo  Mo23  1  3.13940817  3.16950772  0.03869301  1
  Mo  Mo24  1  4.73431134  4.71405988  1.55315526  1
  Mo  Mo25  1  3.13929822  3.16893355  3.22639417  1
  Mo  Mo26  1  4.73987216  4.77683921  4.70273049  1
  Mo  Mo27  1  3.13585190  3.20163289  6.29883563  1
  Mo  Mo28  1  4.76913249  4.72761352  7.86884466  1
  Mo  Mo29  1  3.23305507  6.36202902  0.03584579  1
  Mo  Mo30  1  4.72562243  7.94650703  1.54170242  1
  Mo  Mo31  1  3.15411945  6.31352031  3.17547177  1
  Mo  Mo32  1  4.71853155  7.86721456  4.75046175  1
  Mo  Mo33  1  3.16933754  6.37070335  6.34216579  1
  Mo  Mo34  1  4.78251698  7.87822705  7.93884706  1
  Mo  Mo35  1  6.33197882  -0.01852095  -0.07076166  1
  Mo  Mo36  1  7.85185482  1.56414021  1.59143573  1
  Mo  Mo37  1  6.25234472  -0.05422804  3.14275689  1
  Mo  Mo38  1  7.89024105  1.56519391  4.79190094  1
  Mo  Mo39  1  6.31276805  -0.01821209  6.25880691  1
  Mo  Mo40  1  7.92699468  1.52691683  7.92399541  1
  Mo  Mo41  1  6.28141619  3.16740841  -0.01724543  1
  Mo  Mo42  1  7.92148049  4.68547961  1.59263611  1
  Mo  Mo43  1  6.29949609  3.15487536  3.18664734  1
  Mo  Mo44  1  7.90362081  4.73894458  4.68361561  1
  Mo  Mo45  1  6.24546788  3.19072191  6.27731119  1
  Mo  Mo46  1  7.93005389  4.65592347  7.95394403  1
  Mo  Mo47  1  6.34795357  6.29869378  -0.00936411  1
  Mo  Mo48  1  7.87598364  7.90369957  1.59130038  1
  Mo  Mo49  1  6.24044928  6.30223130  3.11831174  1
  Mo  Mo50  1  7.85577196  7.89338883  4.74419531  1
  Mo  Mo51  1  6.35090379  6.31740570  6.24331508  1
  Mo  Mo52  1  7.92336302  7.86129667  7.87559584  1
  Mo  Mo53  1  4.33970800  1.36643901  9.31556492  1
