# generated using pymatgen
data_Mo
_symmetry_space_group_name_H-M   'P 1'
_cell_length_a   9.46603805
_cell_length_b   9.46603785
_cell_length_c   9.46603779
_cell_angle_alpha   90.00000282
_cell_angle_beta   89.99999931
_cell_angle_gamma   89.99999840
_symmetry_Int_Tables_number   1
_chemical_formula_structural   Mo
_chemical_formula_sum   Mo54
_cell_volume   848.21259331
_cell_formula_units_Z   54
loop_
 _symmetry_equiv_pos_site_id
 _symmetry_equiv_pos_as_xyz
  1  'x, y, z'
loop_
 _atom_site_type_symbol
 _atom_site_label
 _atom_site_symmetry_multiplicity
 _atom_site_fract_x
 _atom_site_fract_y
 _atom_site_fract_z
 _atom_site_occupancy
  Mo  Mo0  1  1.57469265  1.54411982  1.54561685  1
  Mo  Mo1  1  -0.04312283  0.01546970  3.15992491  1
  Mo  Mo2  1  1.56208534  1.47219438  4.76354788  1
  Mo  Mo3  1  -0.02383282  -0.01243418  6.40180691  1
  Mo  Mo4  1  1.50952082  1.53974497  7.89720275  1
  Mo  Mo5  1  0.01738722  3.12130850  0.02405129  1
  Mo  Mo6  1  1.56119468  4.76471310  1.54624606  1
  Mo  Mo7  1  -0.00291579  3.12637748  3.20828556  1
  Mo  Mo8  1  1.60680599  4.78999467  4.70328633  1
  Mo  Mo9  1  -0.01963226  3.23825391  6.30787734  1
  Mo  Mo10  1  1.53301171  4.70222212  7.94202460  1
  Mo  Mo11  1  -0.00352589  6.35540925  -0.00011678  1
  Mo  Mo12  1  1.52820891  7.92225342  1.55107115  1
  Mo  Mo13  1  -0.02872949  6.32702473  3.14447443  1
  Mo  Mo14  1  1.52465902  7.85024065  4.73022376  1
  Mo  Mo15  1  0.00190717  6.27606149  6.31735732  1
  Mo  Mo16  1  1.58695136  7.81224019  7.92324757  1
  Mo  Mo17  1  3.07463546  -0.08204471  0.03516868  1
  Mo  Mo18  1  4.74008061  1.58033197  1.50950519  1
  Mo  Mo19  1  3.13838678  0.01461272  3.22095348  1
  Mo  Mo20  1  4.69171983  1.59549381  4.69225172  1
  Mo  Mo21  1  3.25633104  0.09285570  6.34817949  1
  Mo  Mo22  1  4.74995842  1.50236595  7.90211650  1
  Mo  Mo23  1  3.17016886  3.20895048  -0.04724014  1
  Mo  Mo24  1  4.80146998  4.80131722  1.49440145  1
  Mo  Mo25  1  3.16584386  3.19035302  3.07837228  1
  Mo  Mo26  1  4.70736740  4.71579491  4.68471318  1
  Mo  Mo27  1  3.17580402  3.20168188  6.27180922  1
  Mo  Mo28  1  4.71057691  4.73095464  7.88163968  1
  Mo  Mo29  1  3.14406858  6.31050818  -0.05041365  1
  Mo  Mo30  1  4.73378309  7.89223639  1.63190321  1
  Mo  Mo31  1  3.18186248  6.33255686  3.11636735  1
  Mo  Mo32  1  4.69487983  7.96501760  4.72828402  1
  Mo  Mo33  1  3.15140876  6.29710974  6.23560438  1
  Mo  Mo34  1  4.70393043  7.90180683  7.93327923  1
  Mo  Mo35  1  6.37888722  -0.02821040  0.07844409  1
  Mo  Mo36  1  7.90695867  1.58227316  1.56365651  1
  Mo  Mo37  1  6.32492210  -0.00082974  3.20114435  1
  Mo  Mo38  1  7.88672943  1.56344255  4.72043537  1
  Mo  Mo39  1  6.32267464  0.06241835  6.32149617  1
  Mo  Mo40  1  7.94943846  1.47158272  7.96115431  1
  Mo  Mo41  1  6.30843884  3.11663936  -0.02589343  1
  Mo  Mo42  1  7.94194316  4.76821909  1.54648497  1
  Mo  Mo43  1  6.28108911  3.15682319  3.11784895  1
  Mo  Mo44  1  7.88764032  4.73230873  4.78763056  1
  Mo  Mo45  1  6.29921433  3.16601886  6.27618856  1
  Mo  Mo46  1  7.84628843  4.71909772  7.93171192  1
  Mo  Mo47  1  6.32165065  6.31767043  -0.04251091  1
  Mo  Mo48  1  7.96192562  7.86811109  1.56197073  1
  Mo  Mo49  1  6.41588592  6.28799176  3.15256971  1
  Mo  Mo50  1  7.93902028  7.90172837  4.72005042  1
  Mo  Mo51  1  6.28500116  6.31694140  6.33054317  1
  Mo  Mo52  1  7.85121371  7.88652931  7.94990154  1
  Mo  Mo53  1  8.24932418  6.08623866  5.80734546  1
