# generated using pymatgen
data_Mo
_symmetry_space_group_name_H-M   'P 1'
_cell_length_a   9.46603805
_cell_length_b   9.46603785
_cell_length_c   9.46603779
_cell_angle_alpha   90.00000282
_cell_angle_beta   89.99999931
_cell_angle_gamma   89.99999840
_symmetry_Int_Tables_number   1
_chemical_formula_structural   Mo
_chemical_formula_sum   Mo54
_cell_volume   848.21259331
_cell_formula_units_Z   54
loop_
 _symmetry_equiv_pos_site_id
 _symmetry_equiv_pos_as_xyz
  1  'x, y, z'
loop_
 _atom_site_type_symbol
 _atom_site_label
 _atom_site_symmetry_multiplicity
 _atom_site_fract_x
 _atom_site_fract_y
 _atom_site_fract_z
 _atom_site_occupancy
  Mo  Mo0  1  1.54423462  1.54622842  1.53033497  1
  Mo  Mo1  1  0.01898169  0.04627632  3.16107689  1
  Mo  Mo2  1  1.57801209  1.52270767  4.72700896  1
  Mo  Mo3  1  0.01387530  -0.01932412  6.41334969  1
  Mo  Mo4  1  1.59810509  1.49517250  7.88515425  1
  Mo  Mo5  1  -0.01307672  3.12452897  -0.01014627  1
  Mo  Mo6  1  1.62209725  4.74997254  1.55803139  1
  Mo  Mo7  1  -0.00488560  3.17190952  3.17111616  1
  Mo  Mo8  1  1.58500428  4.73404940  4.72771827  1
  Mo  Mo9  1  0.01377673  3.14402748  6.36002253  1
  Mo  Mo10  1  1.50520578  4.69837086  7.88564799  1
  Mo  Mo11  1  -0.00648981  6.32379674  -0.03912032  1
  Mo  Mo12  1  1.52462708  7.90441795  1.58433386  1
  Mo  Mo13  1  -0.00850257  6.33902351  3.13447333  1
  Mo  Mo14  1  1.57216968  7.85579242  4.71736985  1
  Mo  Mo15  1  -0.01309579  6.27829409  6.28224193  1
  Mo  Mo16  1  1.54052583  7.84610535  7.90726616  1
  Mo  Mo17  1  3.08683877  -0.01642090  -0.01336289  1
  Mo  Mo18  1  4.70620597  1.57299529  1.50975668  1
  Mo  Mo19  1  3.11233212  0.01289643  3.20805960  1
  Mo  Mo20  1  4.71771331  1.60261004  4.72780034  1
  Mo  Mo21  1  3.20387179  0.02152139  6.34007208  1
  Mo  Mo22  1  4.72362248  1.51520213  7.89295132  1
  Mo  Mo23  1  3.16752783  3.16141730  -0.05064870  1
  Mo  Mo24  1  4.75403200  4.80393705  1.52121010  1
  Mo  Mo25  1  3.18047977  3.12075966  3.08337157  1
  Mo  Mo26  1  4.72815768  4.68711662  4.69128487  1
  Mo  Mo27  1  3.18145343  3.15859134  6.26506603  1
  Mo  Mo28  1  4.66189623  4.65965419  7.90426354  1
  Mo  Mo29  1  3.12355846  6.28880170  -0.04997031  1
  Mo  Mo30  1  4.73579052  7.87214992  1.64354148  1
  Mo  Mo31  1  3.16721997  6.36592040  3.12400951  1
  Mo  Mo32  1  4.71135083  7.97522857  4.73861403  1
  Mo  Mo33  1  3.16200507  6.31058459  6.24045576  1
  Mo  Mo34  1  4.68779553  7.90067876  7.98915245  1
  Mo  Mo35  1  6.35669297  -0.02495143  0.01852456  1
  Mo  Mo36  1  7.99134911  1.58619549  1.56841130  1
  Mo  Mo37  1  6.30693734  0.06797875  3.20369718  1
  Mo  Mo38  1  7.90526630  1.57579694  4.73207939  1
  Mo  Mo39  1  6.33652854  0.09506169  6.33684412  1
  Mo  Mo40  1  7.88964070  1.52724433  7.94941196  1
  Mo  Mo41  1  6.35926779  3.14734857  -0.02915913  1
  Mo  Mo42  1  7.93055302  4.77123021  1.56512337  1
  Mo  Mo43  1  6.29873500  3.17272102  3.11366213  1
  Mo  Mo44  1  7.90961179  4.75858983  4.75229754  1
  Mo  Mo45  1  6.33733815  3.11044819  6.30247638  1
  Mo  Mo46  1  7.83284817  4.75515780  7.94970514  1
  Mo  Mo47  1  6.30234208  6.27701977  -0.01399170  1
  Mo  Mo48  1  7.94005376  7.94672009  1.55506596  1
  Mo  Mo49  1  6.38753422  6.27565558  3.15158705  1
  Mo  Mo50  1  7.92803165  7.95150778  4.76298173  1
  Mo  Mo51  1  6.23989056  6.31264176  6.35728239  1
  Mo  Mo52  1  7.85082646  7.90449283  7.94834381  1
  Mo  Mo53  1  5.51885807  8.37361134  3.48934418  1
