# generated using pymatgen
data_Mo
_symmetry_space_group_name_H-M   'P 1'
_cell_length_a   9.46603805
_cell_length_b   9.46603785
_cell_length_c   9.46603779
_cell_angle_alpha   90.00000282
_cell_angle_beta   89.99999931
_cell_angle_gamma   89.99999840
_symmetry_Int_Tables_number   1
_chemical_formula_structural   Mo
_chemical_formula_sum   Mo54
_cell_volume   848.21259331
_cell_formula_units_Z   54
loop_
 _symmetry_equiv_pos_site_id
 _symmetry_equiv_pos_as_xyz
  1  'x, y, z'
loop_
 _atom_site_type_symbol
 _atom_site_label
 _atom_site_symmetry_multiplicity
 _atom_site_fract_x
 _atom_site_fract_y
 _atom_site_fract_z
 _atom_site_occupancy
  Mo  Mo0  1  1.54154067  1.54661744  1.52543996  1
  Mo  Mo1  1  0.03822227  0.04337267  3.15883835  1
  Mo  Mo2  1  1.57255313  1.56152171  4.71014383  1
  Mo  Mo3  1  0.03704504  -0.01830028  6.38795761  1
  Mo  Mo4  1  1.63513002  1.48454256  7.87787616  1
  Mo  Mo5  1  -0.01899231  3.13227007  -0.02080428  1
  Mo  Mo6  1  1.64059348  4.74239629  1.56195726  1
  Mo  Mo7  1  -0.00197588  3.19886876  3.16584597  1
  Mo  Mo8  1  1.56266947  4.69110295  4.72707560  1
  Mo  Mo9  1  0.02482315  3.09348401  6.37496206  1
  Mo  Mo10  1  1.49463423  4.70672811  7.85682590  1
  Mo  Mo11  1  -0.00637502  6.30762945  -0.05189559  1
  Mo  Mo12  1  1.52458048  7.89796947  1.58832519  1
  Mo  Mo13  1  0.02125909  6.32237182  3.13774238  1
  Mo  Mo14  1  1.58545134  7.86984066  4.71703942  1
  Mo  Mo15  1  -0.02312517  6.28639762  6.26438597  1
  Mo  Mo16  1  1.51785637  7.87154664  7.89697933  1
  Mo  Mo17  1  3.11538001  0.02503135  -0.01796685  1
  Mo  Mo18  1  4.69248974  1.55356046  1.51176623  1
  Mo  Mo19  1  3.10700374  0.01620598  3.18294932  1
  Mo  Mo20  1  4.74031558  1.59591327  4.73388482  1
  Mo  Mo21  1  3.15949651  -0.02220735  6.32992858  1
  Mo  Mo22  1  4.71596896  1.53042419  7.89902550  1
  Mo  Mo23  1  3.16515433  3.12964768  -0.04216278  1
  Mo  Mo24  1  4.71972324  4.77443003  1.54889608  1
  Mo  Mo25  1  3.17395926  3.10916952  3.10183938  1
  Mo  Mo26  1  4.74769557  4.70263901  4.70193339  1
  Mo  Mo27  1  3.17461602  3.13222518  6.26482165  1
  Mo  Mo28  1  4.65024459  4.64714797  7.90434321  1
  Mo  Mo29  1  3.12755776  6.28715297  -0.03548831  1
  Mo  Mo30  1  4.73384859  7.88967178  1.63349793  1
  Mo  Mo31  1  3.16770060  6.35282821  3.13750269  1
  Mo  Mo32  1  4.74215313  7.94816841  4.75563007  1
  Mo  Mo33  1  3.17123043  6.31573759  6.25747709  1
  Mo  Mo34  1  4.68529090  7.88906808  8.01069198  1
  Mo  Mo35  1  6.33345120  -0.01343252  -0.01002577  1
  Mo  Mo36  1  8.00942621  1.58298359  1.56910850  1
  Mo  Mo37  1  6.28998950  0.09036203  3.18953898  1
  Mo  Mo38  1  7.92840040  1.59254864  4.74650920  1
  Mo  Mo39  1  6.34291182  0.08063893  6.33684529  1
  Mo  Mo40  1  7.86785012  1.56195856  7.94127650  1
  Mo  Mo41  1  6.36857175  3.15681135  -0.03119233  1
  Mo  Mo42  1  7.93833661  4.76147033  1.58073614  1
  Mo  Mo43  1  6.32203471  3.18600410  3.12194255  1
  Mo  Mo44  1  7.91834301  4.76304265  4.73467696  1
  Mo  Mo45  1  6.34817730  3.11024840  6.31120717  1
  Mo  Mo46  1  7.83400833  4.75691423  7.94770883  1
  Mo  Mo47  1  6.28931190  6.26504697  -0.00111767  1
  Mo  Mo48  1  7.92742273  7.98883559  1.56333058  1
  Mo  Mo49  1  6.33741405  6.29507403  3.16314502  1
  Mo  Mo50  1  7.90769558  7.97282404  4.78206790  1
  Mo  Mo51  1  6.23214335  6.30974650  6.33680003  1
  Mo  Mo52  1  7.85465640  7.90960173  7.94602724  1
  Mo  Mo53  1  8.45819389  5.36857996  3.87190859  1
