# generated using pymatgen
data_Mo
_symmetry_space_group_name_H-M   'P 1'
_cell_length_a   9.46602123
_cell_length_b   9.46602137
_cell_length_c   9.46602266
_cell_angle_alpha   90.00002705
_cell_angle_beta   90.00001288
_cell_angle_gamma   90.00006527
_symmetry_Int_Tables_number   1
_chemical_formula_structural   Mo
_chemical_formula_sum   Mo54
_cell_volume   848.20825455
_cell_formula_units_Z   54
loop_
 _symmetry_equiv_pos_site_id
 _symmetry_equiv_pos_as_xyz
  1  'x, y, z'
loop_
 _atom_site_type_symbol
 _atom_site_label
 _atom_site_symmetry_multiplicity
 _atom_site_fract_x
 _atom_site_fract_y
 _atom_site_fract_z
 _atom_site_occupancy
  Mo  Mo0  1  1.58081116  1.57921919  1.54369092  1
  Mo  Mo1  1  -0.01955973  0.04190180  3.10844149  1
  Mo  Mo2  1  1.54461254  1.57821106  4.70587626  1
  Mo  Mo3  1  0.00297767  -0.00316927  6.31773318  1
  Mo  Mo4  1  1.57883823  1.59169766  7.89038777  1
  Mo  Mo5  1  -0.02023439  3.14755903  0.00324698  1
  Mo  Mo6  1  1.55935425  4.70787155  1.56491622  1
  Mo  Mo7  1  -0.02103607  3.21329858  3.14056863  1
  Mo  Mo8  1  1.58863868  4.71199298  4.72188575  1
  Mo  Mo9  1  -0.01389435  3.10305769  6.26576786  1
  Mo  Mo10  1  1.54673780  4.69913736  7.90589246  1
  Mo  Mo11  1  -0.00813379  6.33369963  0.01930558  1
  Mo  Mo12  1  1.55423849  7.88511182  1.55463341  1
  Mo  Mo13  1  -0.00872332  6.31449036  3.14833537  1
  Mo  Mo14  1  1.58806680  7.92452328  4.72424754  1
  Mo  Mo15  1  0.04906273  6.32700327  6.31783148  1
  Mo  Mo16  1  1.59460420  7.89869737  7.88565654  1
  Mo  Mo17  1  3.12152058  0.02234788  -0.03920377  1
  Mo  Mo18  1  4.76054883  1.57664899  1.61131087  1
  Mo  Mo19  1  3.09964092  -0.00510926  3.16357845  1
  Mo  Mo20  1  4.77535938  1.58050104  4.76991830  1
  Mo  Mo21  1  3.15024717  -0.02369761  6.28599505  1
  Mo  Mo22  1  4.72568771  1.56667001  7.88850809  1
  Mo  Mo23  1  3.16401381  3.12483355  -0.00221772  1
  Mo  Mo24  1  4.69439686  4.73622558  1.62868385  1
  Mo  Mo25  1  3.14486131  3.18702583  3.14512350  1
  Mo  Mo26  1  4.73514185  4.75505916  4.73508091  1
  Mo  Mo27  1  3.18945517  3.15541991  6.32954182  1
  Mo  Mo28  1  4.74440453  4.72994486  7.89353689  1
  Mo  Mo29  1  3.15252979  6.33352899  0.03734289  1
  Mo  Mo30  1  4.73096417  7.90586341  1.57099251  1
  Mo  Mo31  1  3.17092756  6.31220142  3.14917194  1
  Mo  Mo32  1  4.72812592  7.85969249  4.76426888  1
  Mo  Mo33  1  3.13804117  6.29765078  6.32583869  1
  Mo  Mo34  1  4.71964217  7.89676143  7.89233718  1
  Mo  Mo35  1  6.32877535  -0.01290278  -0.03382707  1
  Mo  Mo36  1  7.88272149  1.58014316  1.57205636  1
  Mo  Mo37  1  6.32879644  0.01816622  3.16782512  1
  Mo  Mo38  1  7.88823799  1.53989823  4.74447893  1
  Mo  Mo39  1  6.32363173  0.01569318  6.33286422  1
  Mo  Mo40  1  7.91573649  1.54789938  7.89801666  1
  Mo  Mo41  1  6.34633562  3.13374963  0.01757500  1
  Mo  Mo42  1  7.92225967  4.75843458  1.54247555  1
  Mo  Mo43  1  6.30995759  3.15223680  3.13285060  1
  Mo  Mo44  1  7.89678734  4.75808460  4.72911736  1
  Mo  Mo45  1  6.28209737  3.13340995  6.29651097  1
  Mo  Mo46  1  7.88334632  4.72188384  7.87701875  1
  Mo  Mo47  1  6.34172270  6.30254506  -0.00754589  1
  Mo  Mo48  1  7.91147566  7.87172485  1.58912411  1
  Mo  Mo49  1  6.32426580  6.30251859  3.16078442  1
  Mo  Mo50  1  7.88256734  7.88720733  4.77965872  1
  Mo  Mo51  1  6.26361317  6.29689696  6.29137886  1
  Mo  Mo52  1  7.91113481  7.91184803  7.92684750  1
  Mo  Mo53  1  1.63020315  3.34626855  3.20035731  1
