# generated using pymatgen
data_Mo
_symmetry_space_group_name_H-M   'P 1'
_cell_length_a   9.46602123
_cell_length_b   9.46602137
_cell_length_c   9.46602266
_cell_angle_alpha   90.00002705
_cell_angle_beta   90.00001288
_cell_angle_gamma   90.00006527
_symmetry_Int_Tables_number   1
_chemical_formula_structural   Mo
_chemical_formula_sum   Mo54
_cell_volume   848.20825455
_cell_formula_units_Z   54
loop_
 _symmetry_equiv_pos_site_id
 _symmetry_equiv_pos_as_xyz
  1  'x, y, z'
loop_
 _atom_site_type_symbol
 _atom_site_label
 _atom_site_symmetry_multiplicity
 _atom_site_fract_x
 _atom_site_fract_y
 _atom_site_fract_z
 _atom_site_occupancy
  Mo  Mo0  1  1.60005766  1.59569605  1.52029497  1
  Mo  Mo1  1  -0.04879154  0.08956423  3.06845529  1
  Mo  Mo2  1  1.50649831  1.57599461  4.66283469  1
  Mo  Mo3  1  0.01486014  -0.01406961  6.31185561  1
  Mo  Mo4  1  1.59747319  1.63883621  7.85598027  1
  Mo  Mo5  1  -0.03767545  3.14465194  -0.02084963  1
  Mo  Mo6  1  1.54609021  4.68850708  1.53327479  1
  Mo  Mo7  1  -0.05377207  3.29296297  3.12144239  1
  Mo  Mo8  1  1.59797208  4.70235631  4.72227014  1
  Mo  Mo9  1  -0.03471000  3.06988580  6.19032562  1
  Mo  Mo10  1  1.49565189  4.66045611  7.93743401  1
  Mo  Mo11  1  -0.00351540  6.34234244  0.01900894  1
  Mo  Mo12  1  1.55718935  7.88087594  1.54146374  1
  Mo  Mo13  1  -0.00677754  6.32989494  3.17253917  1
  Mo  Mo14  1  1.58173796  7.96828686  4.70081799  1
  Mo  Mo15  1  0.09117905  6.31669239  6.31795757  1
  Mo  Mo16  1  1.63249807  7.88144940  7.85289738  1
  Mo  Mo17  1  3.11004692  0.04255573  -0.06879730  1
  Mo  Mo18  1  4.77850564  1.54117734  1.64565089  1
  Mo  Mo19  1  3.05609366  0.00512803  3.16957133  1
  Mo  Mo20  1  4.79781306  1.56869984  4.79784021  1
  Mo  Mo21  1  3.16259126  -0.03912620  6.23368177  1
  Mo  Mo22  1  4.73114488  1.54780061  7.92171368  1
  Mo  Mo23  1  3.20301810  3.11883818  0.01538296  1
  Mo  Mo24  1  4.67687182  4.74052189  1.65415238  1
  Mo  Mo25  1  3.14848059  3.21764947  3.16448630  1
  Mo  Mo26  1  4.73201966  4.76312923  4.73993866  1
  Mo  Mo27  1  3.22833736  3.16107925  6.32193699  1
  Mo  Mo28  1  4.74824258  4.72451534  7.93102836  1
  Mo  Mo29  1  3.16305477  6.33064495  0.09119654  1
  Mo  Mo30  1  4.73191895  7.93876914  1.54711280  1
  Mo  Mo31  1  3.18065967  6.31016899  3.16893266  1
  Mo  Mo32  1  4.72304267  7.84897045  4.78444207  1
  Mo  Mo33  1  3.12807612  6.25766607  6.33648729  1
  Mo  Mo34  1  4.71318562  7.92334020  7.91296800  1
  Mo  Mo35  1  6.33229397  -0.02465139  -0.05445700  1
  Mo  Mo36  1  7.85666236  1.60820532  1.59609973  1
  Mo  Mo37  1  6.31002164  0.02222906  3.19150847  1
  Mo  Mo38  1  7.89903065  1.49517708  4.76563298  1
  Mo  Mo39  1  6.32588799  0.00417673  6.34237309  1
  Mo  Mo40  1  7.92536288  1.51835884  7.89946130  1
  Mo  Mo41  1  6.36575775  3.13581414  0.01767254  1
  Mo  Mo42  1  7.95950991  4.77946833  1.49529516  1
  Mo  Mo43  1  6.29872977  3.17752105  3.13293603  1
  Mo  Mo44  1  7.90601196  4.78003303  4.73328916  1
  Mo  Mo45  1  6.26338264  3.14029976  6.26766746  1
  Mo  Mo46  1  7.87392395  4.70566181  7.85980481  1
  Mo  Mo47  1  6.34102193  6.28138500  -0.02293729  1
  Mo  Mo48  1  7.91082862  7.82510810  1.63263717  1
  Mo  Mo49  1  6.32040578  6.29489903  3.17616483  1
  Mo  Mo50  1  7.90345056  7.89448879  4.85255892  1
  Mo  Mo51  1  6.22051117  6.26536597  6.27593723  1
  Mo  Mo52  1  7.92346985  7.91585654  7.94806284  1
  Mo  Mo53  1  4.51231899  4.69347413  3.27647003  1
