# generated using pymatgen
data_Mo
_symmetry_space_group_name_H-M   'P 1'
_cell_length_a   9.46602123
_cell_length_b   9.46602137
_cell_length_c   9.46602266
_cell_angle_alpha   90.00002705
_cell_angle_beta   90.00001288
_cell_angle_gamma   90.00006527
_symmetry_Int_Tables_number   1
_chemical_formula_structural   Mo
_chemical_formula_sum   Mo54
_cell_volume   848.20825455
_cell_formula_units_Z   54
loop_
 _symmetry_equiv_pos_site_id
 _symmetry_equiv_pos_as_xyz
  1  'x, y, z'
loop_
 _atom_site_type_symbol
 _atom_site_label
 _atom_site_symmetry_multiplicity
 _atom_site_fract_x
 _atom_site_fract_y
 _atom_site_fract_z
 _atom_site_occupancy
  Mo  Mo0  1  1.54411315  1.56332084  1.51254475  1
  Mo  Mo1  1  -0.04553598  0.04433540  3.06962259  1
  Mo  Mo2  1  1.55443282  1.59906841  4.66224012  1
  Mo  Mo3  1  0.05234909  -0.02671313  6.37063577  1
  Mo  Mo4  1  1.58228434  1.62003035  7.83030108  1
  Mo  Mo5  1  0.00771791  3.07372794  -0.09333987  1
  Mo  Mo6  1  1.61707732  4.74301897  1.51831300  1
  Mo  Mo7  1  -0.04192395  3.23516628  3.07407100  1
  Mo  Mo8  1  1.56100422  4.77125098  4.75163477  1
  Mo  Mo9  1  -0.01290561  3.17038576  6.22341010  1
  Mo  Mo10  1  1.51991622  4.70116872  7.91435823  1
  Mo  Mo11  1  0.02317464  6.35799836  -0.04245751  1
  Mo  Mo12  1  1.59848007  7.96139203  1.52118810  1
  Mo  Mo13  1  0.01603277  6.38456433  3.21405233  1
  Mo  Mo14  1  1.55871392  7.94050885  4.68868690  1
  Mo  Mo15  1  -0.01982149  6.24541360  6.34289289  1
  Mo  Mo16  1  1.60169739  7.87380594  7.85657809  1
  Mo  Mo17  1  3.11098770  -0.00799568  0.00081937  1
  Mo  Mo18  1  4.71537390  1.48733948  1.61777500  1
  Mo  Mo19  1  3.13588551  0.03870435  3.10924446  1
  Mo  Mo20  1  4.68997569  1.52518275  4.72213857  1
  Mo  Mo21  1  3.18503629  0.01024893  6.25885290  1
  Mo  Mo22  1  4.78066589  1.57765284  7.97792399  1
  Mo  Mo23  1  3.21841582  3.17443653  0.07742370  1
  Mo  Mo24  1  4.80582292  4.73029277  1.53998417  1
  Mo  Mo25  1  3.17135837  3.15271046  3.21430333  1
  Mo  Mo26  1  4.71671637  4.70399267  4.75013403  1
  Mo  Mo27  1  3.16367117  3.13918960  6.27808563  1
  Mo  Mo28  1  4.69869226  4.72285507  7.97369929  1
  Mo  Mo29  1  3.14924900  6.27512720  0.05511396  1
  Mo  Mo30  1  4.73725364  7.90400998  1.53276945  1
  Mo  Mo31  1  3.12310878  6.32209875  3.21485339  1
  Mo  Mo32  1  4.72899724  7.92546445  4.71077310  1
  Mo  Mo33  1  3.16448148  6.24979113  6.33389880  1
  Mo  Mo34  1  4.74654837  7.93973155  7.90748897  1
  Mo  Mo35  1  6.38220904  0.00525692  0.05189457  1
  Mo  Mo36  1  7.86299122  1.59598621  1.60960897  1
  Mo  Mo37  1  6.23470210  -0.03772222  3.17508604  1
  Mo  Mo38  1  7.88215390  1.53609041  4.76083790  1
  Mo  Mo39  1  6.32079687  -0.08309446  6.30907050  1
  Mo  Mo40  1  7.89405443  1.49387523  7.92906330  1
  Mo  Mo41  1  6.31577792  3.19403660  -0.05235673  1
  Mo  Mo42  1  7.90652989  4.73301614  1.53951275  1
  Mo  Mo43  1  6.29497650  3.22396035  3.19441638  1
  Mo  Mo44  1  7.89255898  4.73542750  4.73802074  1
  Mo  Mo45  1  6.34806692  3.18689334  6.28449067  1
  Mo  Mo46  1  7.85883095  4.71087830  7.87661881  1
  Mo  Mo47  1  6.25719569  6.32111440  -0.01507166  1
  Mo  Mo48  1  7.88409925  7.84461057  1.60960003  1
  Mo  Mo49  1  6.27653123  6.33544908  3.17848151  1
  Mo  Mo50  1  7.95918049  7.88380533  4.82748398  1
  Mo  Mo51  1  6.31709967  6.28054637  6.34484482  1
  Mo  Mo52  1  7.93853040  7.89590289  7.93381891  1
  Mo  Mo53  1  7.56744295  4.20994017  3.29216876  1
