# generated using pymatgen
data_Mo
_symmetry_space_group_name_H-M   'P 1'
_cell_length_a   9.46602123
_cell_length_b   9.46602137
_cell_length_c   9.46602266
_cell_angle_alpha   90.00002705
_cell_angle_beta   90.00001288
_cell_angle_gamma   90.00006527
_symmetry_Int_Tables_number   1
_chemical_formula_structural   Mo
_chemical_formula_sum   Mo54
_cell_volume   848.20825455
_cell_formula_units_Z   54
loop_
 _symmetry_equiv_pos_site_id
 _symmetry_equiv_pos_as_xyz
  1  'x, y, z'
loop_
 _atom_site_type_symbol
 _atom_site_label
 _atom_site_symmetry_multiplicity
 _atom_site_fract_x
 _atom_site_fract_y
 _atom_site_fract_z
 _atom_site_occupancy
  Mo  Mo0  1  1.48900852  1.53761048  1.50847109  1
  Mo  Mo1  1  -0.02624829  0.00247940  3.13608373  1
  Mo  Mo2  1  1.55575046  1.61516585  4.70203397  1
  Mo  Mo3  1  0.05133790  -0.01691324  6.37598728  1
  Mo  Mo4  1  1.57180517  1.56419668  7.86104913  1
  Mo  Mo5  1  0.03663514  3.08226077  -0.06831554  1
  Mo  Mo6  1  1.64696786  4.76533755  1.53766542  1
  Mo  Mo7  1  0.01305269  3.16674837  3.06779406  1
  Mo  Mo8  1  1.53588622  4.79258772  4.72344268  1
  Mo  Mo9  1  0.03048881  3.20938082  6.29466948  1
  Mo  Mo10  1  1.56678521  4.74809258  7.87270480  1
  Mo  Mo11  1  -0.01317257  6.33661593  -0.00727826  1
  Mo  Mo12  1  1.60639747  7.96735775  1.51251329  1
  Mo  Mo13  1  -0.00756989  6.36760132  3.17959645  1
  Mo  Mo14  1  1.58092976  7.94865885  4.72007007  1
  Mo  Mo15  1  -0.08372872  6.25119280  6.35462994  1
  Mo  Mo16  1  1.57819973  7.90525207  7.87884305  1
  Mo  Mo17  1  3.12531404  -0.03692659  0.01726608  1
  Mo  Mo18  1  4.69375513  1.53184465  1.56380605  1
  Mo  Mo19  1  3.16714515  0.01180909  3.10997818  1
  Mo  Mo20  1  4.66751406  1.54218889  4.70141065  1
  Mo  Mo21  1  3.20036561  0.01007169  6.33790404  1
  Mo  Mo22  1  4.78290995  1.60198244  7.95971322  1
  Mo  Mo23  1  3.16479229  3.15597567  0.07254015  1
  Mo  Mo24  1  4.83489039  4.71346091  1.55241758  1
  Mo  Mo25  1  3.17446561  3.14874113  3.18823589  1
  Mo  Mo26  1  4.72267007  4.70777054  4.76170621  1
  Mo  Mo27  1  3.12163482  3.13120586  6.30785659  1
  Mo  Mo28  1  4.68130954  4.74098054  7.88765872  1
  Mo  Mo29  1  3.12178822  6.27508071  -0.01749327  1
  Mo  Mo30  1  4.72118738  7.83399466  1.53254687  1
  Mo  Mo31  1  3.12705842  6.31022263  3.19680825  1
  Mo  Mo32  1  4.73020330  7.91253058  4.68960692  1
  Mo  Mo33  1  3.19656253  6.30782792  6.32213771  1
  Mo  Mo34  1  4.75968891  7.93902854  7.85397938  1
  Mo  Mo35  1  6.38382397  0.02625556  0.08407668  1
  Mo  Mo36  1  7.87733364  1.55720941  1.59968325  1
  Mo  Mo37  1  6.25099189  -0.03007948  3.16529077  1
  Mo  Mo38  1  7.85943172  1.54854987  4.74167002  1
  Mo  Mo39  1  6.33953522  -0.06561282  6.29006955  1
  Mo  Mo40  1  7.87052487  1.51676314  7.92928178  1
  Mo  Mo41  1  6.30883067  3.20186746  -0.04357957  1
  Mo  Mo42  1  7.91477539  4.70160335  1.57899169  1
  Mo  Mo43  1  6.29701590  3.19294907  3.19923894  1
  Mo  Mo44  1  7.87476036  4.70187238  4.71506514  1
  Mo  Mo45  1  6.34639260  3.15488260  6.30952789  1
  Mo  Mo46  1  7.87362385  4.72906035  7.94643881  1
  Mo  Mo47  1  6.25442808  6.37519628  0.02078703  1
  Mo  Mo48  1  7.89442660  7.87672218  1.55135822  1
  Mo  Mo49  1  6.27000870  6.33323269  3.18740616  1
  Mo  Mo50  1  7.95917154  7.86379973  4.73069150  1
  Mo  Mo51  1  6.33997627  6.31116446  6.35147521  1
  Mo  Mo52  1  7.94450048  7.90845765  7.93992303  1
  Mo  Mo53  1  5.79780617  0.78603123  5.16152073  1
