# generated using pymatgen
data_Mo
_symmetry_space_group_name_H-M   'P 1'
_cell_length_a   9.46602123
_cell_length_b   9.46602137
_cell_length_c   9.46602266
_cell_angle_alpha   90.00002705
_cell_angle_beta   90.00001288
_cell_angle_gamma   90.00006527
_symmetry_Int_Tables_number   1
_chemical_formula_structural   Mo
_chemical_formula_sum   Mo54
_cell_volume   848.20825455
_cell_formula_units_Z   54
loop_
 _symmetry_equiv_pos_site_id
 _symmetry_equiv_pos_as_xyz
  1  'x, y, z'
loop_
 _atom_site_type_symbol
 _atom_site_label
 _atom_site_symmetry_multiplicity
 _atom_site_fract_x
 _atom_site_fract_y
 _atom_site_fract_z
 _atom_site_occupancy
  Mo  Mo0  1  1.48182144  1.51183832  1.50552332  1
  Mo  Mo1  1  -0.00432712  -0.00656466  3.20452638  1
  Mo  Mo2  1  1.50606046  1.61243952  4.73735352  1
  Mo  Mo3  1  0.01404512  -0.00450188  6.34059773  1
  Mo  Mo4  1  1.56121765  1.53364820  7.91730623  1
  Mo  Mo5  1  0.03416103  3.14472920  0.01223611  1
  Mo  Mo6  1  1.62087442  4.74170957  1.54244498  1
  Mo  Mo7  1  0.06071717  3.13715520  3.13007165  1
  Mo  Mo8  1  1.53492458  4.78004086  4.67360223  1
  Mo  Mo9  1  0.04071812  3.17451391  6.33332623  1
  Mo  Mo10  1  1.56451292  4.77645140  7.85095555  1
  Mo  Mo11  1  -0.05165220  6.31165277  0.06819544  1
  Mo  Mo12  1  1.58582854  7.89413368  1.52472532  1
  Mo  Mo13  1  -0.04093000  6.30344686  3.13644456  1
  Mo  Mo14  1  1.60329541  7.97729045  4.75067389  1
  Mo  Mo15  1  -0.06038132  6.30744255  6.33368484  1
  Mo  Mo16  1  1.55777701  7.94574592  7.88628252  1
  Mo  Mo17  1  3.15128222  -0.02381022  -0.00001295  1
  Mo  Mo18  1  4.70323860  1.58341024  1.52997742  1
  Mo  Mo19  1  3.13783245  -0.02643246  3.17501950  1
  Mo  Mo20  1  4.70787418  1.57639553  4.73080428  1
  Mo  Mo21  1  3.21802021  -0.01779017  6.38544937  1
  Mo  Mo22  1  4.73376838  1.59303857  7.91742388  1
  Mo  Mo23  1  3.12841051  3.11883233  0.00477136  1
  Mo  Mo24  1  4.76068575  4.70063251  1.60241678  1
  Mo  Mo25  1  3.16347565  3.18113242  3.14303633  1
  Mo  Mo26  1  4.73602792  4.73902880  4.76047661  1
  Mo  Mo27  1  3.13217823  3.15212506  6.35427078  1
  Mo  Mo28  1  4.71183829  4.76538901  7.81832623  1
  Mo  Mo29  1  3.12591601  6.28918841  -0.05254479  1
  Mo  Mo30  1  4.70786752  7.82010757  1.51572156  1
  Mo  Mo31  1  3.16943285  6.28651505  3.14897081  1
  Mo  Mo32  1  4.74504651  7.87480814  4.70585198  1
  Mo  Mo33  1  3.18117570  6.36183911  6.29166176  1
  Mo  Mo34  1  4.77380427  7.94666661  7.82073024  1
  Mo  Mo35  1  6.32131374  0.03628994  0.01771942  1
  Mo  Mo36  1  7.90890739  1.51885256  1.58810824  1
  Mo  Mo37  1  6.29238993  0.02315033  3.16336976  1
  Mo  Mo38  1  7.86866340  1.52031660  4.72186707  1
  Mo  Mo39  1  6.36600430  0.01420456  6.28044417  1
  Mo  Mo40  1  7.87292598  1.57402530  7.91113602  1
  Mo  Mo41  1  6.32277869  3.19552158  0.02593107  1
  Mo  Mo42  1  7.97192777  4.68852301  1.59088172  1
  Mo  Mo43  1  6.30211140  3.12066350  3.17049298  1
  Mo  Mo44  1  7.88300397  4.68855241  4.71244908  1
  Mo  Mo45  1  6.28794104  3.11241711  6.33328311  1
  Mo  Mo46  1  7.88818691  4.74789377  7.99764790  1
  Mo  Mo47  1  6.28660724  6.37941423  0.03602700  1
  Mo  Mo48  1  7.92922986  7.88871285  1.52968795  1
  Mo  Mo49  1  6.30273810  6.28851365  3.19365200  1
  Mo  Mo50  1  7.93508787  7.86153743  4.65772587  1
  Mo  Mo51  1  6.30512488  6.31441776  6.30789006  1
  Mo  Mo52  1  7.94385162  7.95005444  7.94682094  1
  Mo  Mo53  1  7.78515437  0.12807497  0.92702991  1
