# generated using pymatgen
data_Mo
_symmetry_space_group_name_H-M   'P 1'
_cell_length_a   9.46602123
_cell_length_b   9.46602137
_cell_length_c   9.46602266
_cell_angle_alpha   90.00002705
_cell_angle_beta   90.00001288
_cell_angle_gamma   90.00006527
_symmetry_Int_Tables_number   1
_chemical_formula_structural   Mo
_chemical_formula_sum   Mo54
_cell_volume   848.20825455
_cell_formula_units_Z   54
loop_
 _symmetry_equiv_pos_site_id
 _symmetry_equiv_pos_as_xyz
  1  'x, y, z'
loop_
 _atom_site_type_symbol
 _atom_site_label
 _atom_site_symmetry_multiplicity
 _atom_site_fract_x
 _atom_site_fract_y
 _atom_site_fract_z
 _atom_site_occupancy
  Mo  Mo0  1  1.53427256  1.48654783  1.52343020  1
  Mo  Mo1  1  0.01591804  -0.00968557  3.19200087  1
  Mo  Mo2  1  1.49923058  1.59210672  4.76329811  1
  Mo  Mo3  1  -0.02233840  0.01075038  6.32210842  1
  Mo  Mo4  1  1.52271510  1.54425572  7.96560322  1
  Mo  Mo5  1  0.01228046  3.18040472  0.06102128  1
  Mo  Mo6  1  1.57288309  4.69980434  1.51116312  1
  Mo  Mo7  1  0.05438174  3.13802128  3.22536728  1
  Mo  Mo8  1  1.55968658  4.76244492  4.66712499  1
  Mo  Mo9  1  -0.00071652  3.12714676  6.33153751  1
  Mo  Mo10  1  1.51460769  4.79031704  7.85309690  1
  Mo  Mo11  1  -0.02656695  6.31827437  0.07018333  1
  Mo  Mo12  1  1.56645672  7.82351684  1.55165194  1
  Mo  Mo13  1  -0.03110868  6.25306268  3.15444972  1
  Mo  Mo14  1  1.58964683  7.96174670  4.75113426  1
  Mo  Mo15  1  -0.00237178  6.34644608  6.29726189  1
  Mo  Mo16  1  1.52282365  7.96470858  7.88417338  1
  Mo  Mo17  1  3.15636463  -0.00627625  0.00991757  1
  Mo  Mo18  1  4.70086895  1.56703640  1.54092131  1
  Mo  Mo19  1  3.11585101  -0.02752119  3.25484912  1
  Mo  Mo20  1  4.73277213  1.58728935  4.75873521  1
  Mo  Mo21  1  3.21371057  -0.01019060  6.35250464  1
  Mo  Mo22  1  4.67229564  1.57187382  7.89538297  1
  Mo  Mo23  1  3.15470441  3.11755423  -0.07084487  1
  Mo  Mo24  1  4.68252555  4.70694057  1.58552559  1
  Mo  Mo25  1  3.14859197  3.17631993  3.13910402  1
  Mo  Mo26  1  4.73718278  4.74512098  4.73093294  1
  Mo  Mo27  1  3.16001786  3.18979089  6.34009534  1
  Mo  Mo28  1  4.75903756  4.78139634  7.86243223  1
  Mo  Mo29  1  3.16580865  6.28202314  -0.03193151  1
  Mo  Mo30  1  4.73399658  7.88603018  1.49546231  1
  Mo  Mo31  1  3.19340462  6.27866698  3.11982898  1
  Mo  Mo32  1  4.78111612  7.88859121  4.70664532  1
  Mo  Mo33  1  3.12275825  6.35441220  6.26183444  1
  Mo  Mo34  1  4.79273267  7.94549825  7.85513792  1
  Mo  Mo35  1  6.26500927  0.04354992  -0.07066762  1
  Mo  Mo36  1  7.94957651  1.49408603  1.56515373  1
  Mo  Mo37  1  6.29738860  0.04933625  3.13858376  1
  Mo  Mo38  1  7.90765730  1.50478458  4.71350676  1
  Mo  Mo39  1  6.36539638  0.06979071  6.27795969  1
  Mo  Mo40  1  7.89595464  1.62743790  7.90453953  1
  Mo  Mo41  1  6.32125405  3.19922530  0.08378082  1
  Mo  Mo42  1  7.98154923  4.69444129  1.60267637  1
  Mo  Mo43  1  6.31038124  3.07987962  3.15160043  1
  Mo  Mo44  1  7.91286441  4.68461763  4.75755508  1
  Mo  Mo45  1  6.25793413  3.13135742  6.34840308  1
  Mo  Mo46  1  7.89006791  4.76622518  7.98201049  1
  Mo  Mo47  1  6.30236098  6.32650355  0.01899338  1
  Mo  Mo48  1  7.94816346  7.90777812  1.55253319  1
  Mo  Mo49  1  6.33594604  6.23949001  3.16892575  1
  Mo  Mo50  1  7.91567977  7.86715756  4.66725976  1
  Mo  Mo51  1  6.29310863  6.29502339  6.26644160  1
  Mo  Mo52  1  7.92949943  7.98019919  7.92504017  1
  Mo  Mo53  1  3.72079411  7.27665225  5.60421944  1
