# generated using pymatgen
data_Mo
_symmetry_space_group_name_H-M   'P 1'
_cell_length_a   9.46602123
_cell_length_b   9.46602137
_cell_length_c   9.46602266
_cell_angle_alpha   90.00002705
_cell_angle_beta   90.00001288
_cell_angle_gamma   90.00006527
_symmetry_Int_Tables_number   1
_chemical_formula_structural   Mo
_chemical_formula_sum   Mo54
_cell_volume   848.20825455
_cell_formula_units_Z   54
loop_
 _symmetry_equiv_pos_site_id
 _symmetry_equiv_pos_as_xyz
  1  'x, y, z'
loop_
 _atom_site_type_symbol
 _atom_site_label
 _atom_site_symmetry_multiplicity
 _atom_site_fract_x
 _atom_site_fract_y
 _atom_site_fract_z
 _atom_site_occupancy
  Mo  Mo0  1  1.59676628  1.49358557  1.56532653  1
  Mo  Mo1  1  0.02082433  -0.03299857  3.10645378  1
  Mo  Mo2  1  1.56278507  1.56372294  4.78528609  1
  Mo  Mo3  1  -0.01875357  0.02300629  6.33713113  1
  Mo  Mo4  1  1.47017630  1.57361469  7.97930334  1
  Mo  Mo5  1  -0.00711803  3.14437860  0.03371733  1
  Mo  Mo6  1  1.55551323  4.67762435  1.48121311  1
  Mo  Mo7  1  0.00829469  3.14157026  3.25695450  1
  Mo  Mo8  1  1.59070026  4.74129712  4.72330178  1
  Mo  Mo9  1  -0.03945017  3.13344178  6.31544313  1
  Mo  Mo10  1  1.47622405  4.78100527  7.86313906  1
  Mo  Mo11  1  0.01951358  6.35502171  -0.01562447  1
  Mo  Mo12  1  1.57301222  7.83036895  1.57659758  1
  Mo  Mo13  1  0.01665961  6.25672805  3.21591012  1
  Mo  Mo14  1  1.55216745  7.90370068  4.73045676  1
  Mo  Mo15  1  0.01929229  6.33141382  6.27916105  1
  Mo  Mo16  1  1.49623236  7.96048528  7.89406462  1
  Mo  Mo17  1  3.11279751  -0.02982405  0.04015740  1
  Mo  Mo18  1  4.69031003  1.50831872  1.57269834  1
  Mo  Mo19  1  3.14508930  0.00041768  3.27915124  1
  Mo  Mo20  1  4.72104833  1.57595378  4.75613790  1
  Mo  Mo21  1  3.17375228  0.02420869  6.29763287  1
  Mo  Mo22  1  4.65929113  1.57297449  7.90325122  1
  Mo  Mo23  1  3.19445522  3.14746483  -0.08222287  1
  Mo  Mo24  1  4.69155590  4.72519742  1.51965613  1
  Mo  Mo25  1  3.14003368  3.12540565  3.16903426  1
  Mo  Mo26  1  4.72846315  4.72630713  4.68988331  1
  Mo  Mo27  1  3.15940769  3.22320978  6.27370416  1
  Mo  Mo28  1  4.76049504  4.77779888  7.94803885  1
  Mo  Mo29  1  3.19253914  6.26858026  -0.00431270  1
  Mo  Mo30  1  4.78463330  7.95909463  1.50755728  1
  Mo  Mo31  1  3.17977004  6.29885485  3.13057095  1
  Mo  Mo32  1  4.80228041  7.93049883  4.69414249  1
  Mo  Mo33  1  3.11084586  6.30622637  6.26528173  1
  Mo  Mo34  1  4.77033959  7.92322035  7.90925442  1
  Mo  Mo35  1  6.29733653  0.04458637  -0.09079646  1
  Mo  Mo36  1  7.97153513  1.48827354  1.53392034  1
  Mo  Mo37  1  6.28169261  0.01171426  3.08926102  1
  Mo  Mo38  1  7.92629763  1.52936499  4.71993183  1
  Mo  Mo39  1  6.33143427  0.05173499  6.26654155  1
  Mo  Mo40  1  7.90151880  1.64267583  7.92989166  1
  Mo  Mo41  1  6.29719261  3.19434006  0.06613693  1
  Mo  Mo42  1  7.92125265  4.71352744  1.63264078  1
  Mo  Mo43  1  6.31350487  3.11018886  3.16252785  1
  Mo  Mo44  1  7.92539804  4.68687294  4.81471354  1
  Mo  Mo45  1  6.28781200  3.20566685  6.33703918  1
  Mo  Mo46  1  7.89317731  4.78239474  7.93887586  1
  Mo  Mo47  1  6.31020804  6.28202252  -0.00463194  1
  Mo  Mo48  1  7.94089492  7.93411344  1.56975520  1
  Mo  Mo49  1  6.33354399  6.23429115  3.12829601  1
  Mo  Mo50  1  7.91640101  7.87692956  4.73027054  1
  Mo  Mo51  1  6.31928982  6.28915123  6.26799401  1
  Mo  Mo52  1  7.90689486  7.96558557  7.89561561  1
  Mo  Mo53  1  9.45920224  7.48564306  2.10181878  1
