# generated using pymatgen
data_Mo
_symmetry_space_group_name_H-M   'P 1'
_cell_length_a   9.46602123
_cell_length_b   9.46602137
_cell_length_c   9.46602266
_cell_angle_alpha   90.00002705
_cell_angle_beta   90.00001288
_cell_angle_gamma   90.00006527
_symmetry_Int_Tables_number   1
_chemical_formula_structural   Mo
_chemical_formula_sum   Mo54
_cell_volume   848.20825455
_cell_formula_units_Z   54
loop_
 _symmetry_equiv_pos_site_id
 _symmetry_equiv_pos_as_xyz
  1  'x, y, z'
loop_
 _atom_site_type_symbol
 _atom_site_label
 _atom_site_symmetry_multiplicity
 _atom_site_fract_x
 _atom_site_fract_y
 _atom_site_fract_z
 _atom_site_occupancy
  Mo  Mo0  1  1.61438992  1.54288399  1.60246183  1
  Mo  Mo1  1  0.01005882  -0.04897901  3.06024899  1
  Mo  Mo2  1  1.61131834  1.53157613  4.78809156  1
  Mo  Mo3  1  0.00468908  0.02304338  6.33811523  1
  Mo  Mo4  1  1.46872370  1.57932021  7.95836123  1
  Mo  Mo5  1  -0.02300062  3.10613998  -0.01007632  1
  Mo  Mo6  1  1.56499783  4.69093185  1.48784955  1
  Mo  Mo7  1  -0.02951948  3.14477318  3.19245468  1
  Mo  Mo8  1  1.59330826  4.70789449  4.76495500  1
  Mo  Mo9  1  -0.01993660  3.17194704  6.30458862  1
  Mo  Mo10  1  1.49260717  4.73644600  7.87781769  1
  Mo  Mo11  1  0.02395573  6.37311737  -0.06731654  1
  Mo  Mo12  1  1.59379751  7.88390683  1.58988836  1
  Mo  Mo13  1  0.04443490  6.28093913  3.23264842  1
  Mo  Mo14  1  1.53595566  7.86251642  4.72881587  1
  Mo  Mo15  1  0.00919600  6.28891606  6.29739686  1
  Mo  Mo16  1  1.50873828  7.94234756  7.90913162  1
  Mo  Mo17  1  3.06769130  -0.05238988  0.03216960  1
  Mo  Mo18  1  4.71870559  1.48435746  1.58458275  1
  Mo  Mo19  1  3.17995254  0.01172983  3.21861688  1
  Mo  Mo20  1  4.73460434  1.56972138  4.74863039  1
  Mo  Mo21  1  3.12059548  0.03469239  6.30912616  1
  Mo  Mo22  1  4.69896615  1.58879924  7.92757858  1
  Mo  Mo23  1  3.16927698  3.16641833  -0.02482218  1
  Mo  Mo24  1  4.75874987  4.73009574  1.51602700  1
  Mo  Mo25  1  3.14853594  3.10834309  3.17436314  1
  Mo  Mo26  1  4.73189716  4.72857145  4.67260212  1
  Mo  Mo27  1  3.14754439  3.22003481  6.24842142  1
  Mo  Mo28  1  4.70484478  4.75373064  7.94236701  1
  Mo  Mo29  1  3.17874932  6.28791649  -0.00644120  1
  Mo  Mo30  1  4.79782442  7.95633126  1.55338586  1
  Mo  Mo31  1  3.16663656  6.31820750  3.15400175  1
  Mo  Mo32  1  4.77445882  7.93259073  4.71554716  1
  Mo  Mo33  1  3.18207136  6.28206465  6.29523185  1
  Mo  Mo34  1  4.69192223  7.91045150  7.93485368  1
  Mo  Mo35  1  6.38370054  0.01630580  -0.04829012  1
  Mo  Mo36  1  7.95506772  1.51061876  1.52451592  1
  Mo  Mo37  1  6.30418439  -0.03891200  3.06960403  1
  Mo  Mo38  1  7.91551469  1.55517466  4.73089246  1
  Mo  Mo39  1  6.28531137  -0.00292147  6.24019812  1
  Mo  Mo40  1  7.87096791  1.62063109  7.95862699  1
  Mo  Mo41  1  6.27685199  3.15658162  -0.01501045  1
  Mo  Mo42  1  7.88591545  4.73645538  1.64735645  1
  Mo  Mo43  1  6.30444740  3.17388293  3.17671666  1
  Mo  Mo44  1  7.89855420  4.72055503  4.80547943  1
  Mo  Mo45  1  6.31798771  3.24345110  6.30013560  1
  Mo  Mo46  1  7.89229652  4.78571282  7.93885191  1
  Mo  Mo47  1  6.35129855  6.28989758  -0.01439124  1
  Mo  Mo48  1  7.92817498  7.94196956  1.54694275  1
  Mo  Mo49  1  6.31368213  6.27854323  3.11810245  1
  Mo  Mo50  1  7.91157834  7.91192714  4.76738969  1
  Mo  Mo51  1  6.32981454  6.31313617  6.29643459  1
  Mo  Mo52  1  7.88324249  7.92291280  7.89020607  1
  Mo  Mo53  1  4.99474624  5.37832799  6.34774936  1
