# generated using pymatgen
data_Mo
_symmetry_space_group_name_H-M   'P 1'
_cell_length_a   9.46602123
_cell_length_b   9.46602137
_cell_length_c   9.46602266
_cell_angle_alpha   90.00002705
_cell_angle_beta   90.00001288
_cell_angle_gamma   90.00006527
_symmetry_Int_Tables_number   1
_chemical_formula_structural   Mo
_chemical_formula_sum   Mo54
_cell_volume   848.20825455
_cell_formula_units_Z   54
loop_
 _symmetry_equiv_pos_site_id
 _symmetry_equiv_pos_as_xyz
  1  'x, y, z'
loop_
 _atom_site_type_symbol
 _atom_site_label
 _atom_site_symmetry_multiplicity
 _atom_site_fract_x
 _atom_site_fract_y
 _atom_site_fract_z
 _atom_site_occupancy
  Mo  Mo0  1  1.57979955  1.61523515  1.61630639  1
  Mo  Mo1  1  -0.00069319  0.01278797  3.14314008  1
  Mo  Mo2  1  1.59425749  1.49804009  4.73773709  1
  Mo  Mo3  1  -0.00878012  -0.02108784  6.30951616  1
  Mo  Mo4  1  1.57229606  1.53448061  7.90105349  1
  Mo  Mo5  1  -0.03514630  3.13753408  -0.01677293  1
  Mo  Mo6  1  1.58052068  4.76165851  1.56366808  1
  Mo  Mo7  1  -0.05876788  3.17363966  3.07264847  1
  Mo  Mo8  1  1.55818793  4.67396774  4.71331438  1
  Mo  Mo9  1  0.03300596  3.16520070  6.26722392  1
  Mo  Mo10  1  1.58536439  4.67014041  7.91864350  1
  Mo  Mo11  1  0.01224692  6.33189931  0.02954248  1
  Mo  Mo12  1  1.59152941  7.89576039  1.57581432  1
  Mo  Mo13  1  -0.00466617  6.32288938  3.15140675  1
  Mo  Mo14  1  1.56587161  7.85934373  4.77398807  1
  Mo  Mo15  1  0.03170947  6.26263385  6.33808876  1
  Mo  Mo16  1  1.56219613  7.88648345  7.89580408  1
  Mo  Mo17  1  3.09510450  0.03761592  -0.00982085  1
  Mo  Mo18  1  4.82039386  1.53272676  1.55659584  1
  Mo  Mo19  1  3.17408053  -0.01750638  3.11203258  1
  Mo  Mo20  1  4.78273518  1.56824495  4.74448444  1
  Mo  Mo21  1  3.11897653  0.00821879  6.38200633  1
  Mo  Mo22  1  4.73599214  1.58959566  7.96866316  1
  Mo  Mo23  1  3.08217043  3.15860175  0.04516060  1
  Mo  Mo24  1  4.79100296  4.71470837  1.59232161  1
  Mo  Mo25  1  3.18235143  3.18848371  3.13118915  1
  Mo  Mo26  1  4.74470964  4.77259393  4.73080303  1
  Mo  Mo27  1  3.17298898  3.12969380  6.31941715  1
  Mo  Mo28  1  4.66837376  4.71886588  7.85142775  1
  Mo  Mo29  1  3.14968822  6.34218742  -0.00649208  1
  Mo  Mo30  1  4.73474726  7.83730910  1.57434004  1
  Mo  Mo31  1  3.17412373  6.30071873  3.16953203  1
  Mo  Mo32  1  4.66328171  7.88535119  4.77690046  1
  Mo  Mo33  1  3.22577138  6.30977046  6.31124013  1
  Mo  Mo34  1  4.60678845  7.93647781  7.92926818  1
  Mo  Mo35  1  6.40035077  -0.07042121  0.00527466  1
  Mo  Mo36  1  7.88368823  1.59050463  1.59158085  1
  Mo  Mo37  1  6.36394247  -0.02459902  3.15599203  1
  Mo  Mo38  1  7.91604970  1.59209457  4.74580135  1
  Mo  Mo39  1  6.26846610  -0.03226424  6.25188088  1
  Mo  Mo40  1  7.85148713  1.57745757  7.91038592  1
  Mo  Mo41  1  6.29319969  3.11020495  -0.09120821  1
  Mo  Mo42  1  7.93791477  4.77162768  1.58524890  1
  Mo  Mo43  1  6.28904306  3.20614194  3.13681195  1
  Mo  Mo44  1  7.87074499  4.80988737  4.70505664  1
  Mo  Mo45  1  6.29835544  3.15802123  6.24328170  1
  Mo  Mo46  1  7.86225027  4.72202406  7.97916313  1
  Mo  Mo47  1  6.37578479  6.31459741  -0.01626574  1
  Mo  Mo48  1  7.96121571  7.91245414  1.51859731  1
  Mo  Mo49  1  6.31042573  6.36368430  3.17001040  1
  Mo  Mo50  1  7.87876798  7.97075626  4.72294317  1
  Mo  Mo51  1  6.29462361  6.34450303  6.31111378  1
  Mo  Mo52  1  7.84680957  7.87436970  7.88957460  1
  Mo  Mo53  1  3.93062144  0.77574692  8.77199971  1
