# generated using pymatgen
data_Mo
_symmetry_space_group_name_H-M   'P 1'
_cell_length_a   9.46603830
_cell_length_b   9.46603830
_cell_length_c   9.46603730
_cell_angle_alpha   90.00000000
_cell_angle_beta   90.00000000
_cell_angle_gamma   90.00000000
_symmetry_Int_Tables_number   1
_chemical_formula_structural   Mo
_chemical_formula_sum   Mo53
_cell_volume   848.21261229
_cell_formula_units_Z   53
loop_
 _symmetry_equiv_pos_site_id
 _symmetry_equiv_pos_as_xyz
  1  'x, y, z'
loop_
 _atom_site_type_symbol
 _atom_site_label
 _atom_site_symmetry_multiplicity
 _atom_site_fract_x
 _atom_site_fract_y
 _atom_site_fract_z
 _atom_site_occupancy
  Mo  Mo0  1  1.30501233  0.15402126  0.31530916  1
  Mo  Mo1  1  -0.00256356  -0.03724881  3.14131255  1
  Mo  Mo2  1  1.54927867  1.46483640  4.71248526  1
  Mo  Mo3  1  0.02422477  0.04622100  6.36977705  1
  Mo  Mo4  1  1.57535854  1.50943606  7.83116381  1
  Mo  Mo5  1  0.00140507  3.08944007  -0.01640229  1
  Mo  Mo6  1  1.52387666  4.69099658  1.46197470  1
  Mo  Mo7  1  0.01470630  3.14783485  3.14388752  1
  Mo  Mo8  1  1.53727018  4.72158573  4.72327642  1
  Mo  Mo9  1  0.01870246  3.17424494  6.28391407  1
  Mo  Mo10  1  1.56692887  4.68561253  7.88467069  1
  Mo  Mo11  1  -0.02851910  6.27322373  -0.03924296  1
  Mo  Mo12  1  1.58419096  7.90716177  1.58267354  1
  Mo  Mo13  1  -0.01274327  6.32516721  3.18305518  1
  Mo  Mo14  1  1.55750596  7.85550490  4.79312069  1
  Mo  Mo15  1  -0.02501218  6.38306035  6.37630182  1
  Mo  Mo16  1  1.57092806  7.90360552  7.95161072  1
  Mo  Mo17  1  3.22633700  0.07828552  -0.04595678  1
  Mo  Mo18  1  4.71180674  1.59712950  1.56650418  1
  Mo  Mo19  1  3.18728401  0.03754630  3.11138339  1
  Mo  Mo20  1  4.70264167  1.53966781  4.70100125  1
  Mo  Mo21  1  3.19289274  -0.01600987  6.31053256  1
  Mo  Mo22  1  4.75836974  1.58113117  7.91310464  1
  Mo  Mo23  1  3.09609339  3.14225084  0.02760148  1
  Mo  Mo24  1  4.66986803  4.75311002  1.60414273  1
  Mo  Mo25  1  3.13180178  3.14264776  3.17893214  1
  Mo  Mo26  1  4.66338265  4.68603767  4.73560714  1
  Mo  Mo27  1  3.15144040  3.17404503  6.35121541  1
  Mo  Mo28  1  4.68585757  4.72329401  7.92382184  1
  Mo  Mo29  1  3.20347776  6.38263627  0.01346551  1
  Mo  Mo30  1  4.71419510  7.93948076  1.47940741  1
  Mo  Mo31  1  3.13560871  6.30285228  3.13037919  1
  Mo  Mo32  1  4.70178929  7.90809103  4.63795595  1
  Mo  Mo33  1  3.20662234  6.35780489  6.31902848  1
  Mo  Mo34  1  4.79030929  7.93281478  7.87391203  1
  Mo  Mo35  1  6.32812951  0.00893330  -0.04318232  1
  Mo  Mo36  1  7.92155171  1.59711476  1.64617063  1
  Mo  Mo37  1  6.33286239  -0.04056574  3.11274602  1
  Mo  Mo38  1  7.97282122  1.57502647  4.76438628  1
  Mo  Mo39  1  6.31958850  -0.01012275  6.33502214  1
  Mo  Mo40  1  7.89092396  1.56706142  7.86775946  1
  Mo  Mo41  1  6.31126739  3.16386584  0.01638228  1
  Mo  Mo42  1  7.90570671  4.75001853  1.57672793  1
  Mo  Mo43  1  6.35018763  3.14252186  3.14404543  1
  Mo  Mo44  1  7.88850482  4.79035514  4.77629748  1
  Mo  Mo45  1  6.30858111  3.16917377  6.32823948  1
  Mo  Mo46  1  7.87828728  4.71073182  7.90484482  1
  Mo  Mo47  1  6.29496475  6.26514234  0.06345842  1
  Mo  Mo48  1  7.92856952  7.89107518  1.50439438  1
  Mo  Mo49  1  6.30381134  6.34428889  3.18316411  1
  Mo  Mo50  1  7.87284807  7.97055141  4.77707492  1
  Mo  Mo51  1  6.27734437  6.32680125  6.36044384  1
  Mo  Mo52  1  7.95496340  7.87093609  7.93180794  1
