# generated using pymatgen
data_Mo
_symmetry_space_group_name_H-M   'P 1'
_cell_length_a   9.46603830
_cell_length_b   9.46603830
_cell_length_c   9.46603730
_cell_angle_alpha   90.00000000
_cell_angle_beta   90.00000000
_cell_angle_gamma   90.00000000
_symmetry_Int_Tables_number   1
_chemical_formula_structural   Mo
_chemical_formula_sum   Mo53
_cell_volume   848.21261229
_cell_formula_units_Z   53
loop_
 _symmetry_equiv_pos_site_id
 _symmetry_equiv_pos_as_xyz
  1  'x, y, z'
loop_
 _atom_site_type_symbol
 _atom_site_label
 _atom_site_symmetry_multiplicity
 _atom_site_fract_x
 _atom_site_fract_y
 _atom_site_fract_z
 _atom_site_occupancy
  Mo  Mo0  1  0.81765067  1.84213087  1.02766662  1
  Mo  Mo1  1  0.03167334  0.00871066  3.14762251  1
  Mo  Mo2  1  1.60862039  1.57346351  4.71925325  1
  Mo  Mo3  1  -0.00050965  -0.01587219  6.36081159  1
  Mo  Mo4  1  1.57453430  1.59348365  7.91153933  1
  Mo  Mo5  1  -0.02160051  3.11279957  -0.03381276  1
  Mo  Mo6  1  1.56003536  4.69725485  1.57700401  1
  Mo  Mo7  1  0.01660163  3.16736912  3.12285756  1
  Mo  Mo8  1  1.58295714  4.64552430  4.73619246  1
  Mo  Mo9  1  0.02728353  3.14679607  6.31369893  1
  Mo  Mo10  1  1.60446265  4.72990197  7.90177684  1
  Mo  Mo11  1  -0.02856827  6.36138119  0.07920454  1
  Mo  Mo12  1  1.50380982  7.79556413  1.59975256  1
  Mo  Mo13  1  -0.05647982  6.29137555  3.20025148  1
  Mo  Mo14  1  1.48065747  7.88940733  4.67951988  1
  Mo  Mo15  1  0.01278112  6.30400937  6.33476731  1
  Mo  Mo16  1  1.56167558  7.90405935  7.85970118  1
  Mo  Mo17  1  3.13448241  0.04444638  0.02241273  1
  Mo  Mo18  1  4.76492158  1.59445580  1.57671921  1
  Mo  Mo19  1  3.19382932  -0.01122708  3.17810220  1
  Mo  Mo20  1  4.72516731  1.58119739  4.71235314  1
  Mo  Mo21  1  3.20476697  0.01248194  6.32784012  1
  Mo  Mo22  1  4.71201232  1.54360277  7.90693712  1
  Mo  Mo23  1  3.14246086  3.26297861  0.00169303  1
  Mo  Mo24  1  4.73147534  4.68187149  1.56856276  1
  Mo  Mo25  1  3.22753623  3.15662514  3.17173826  1
  Mo  Mo26  1  4.71797265  4.78087487  4.72586718  1
  Mo  Mo27  1  3.19967893  3.18791524  6.35268514  1
  Mo  Mo28  1  4.71754142  4.70334356  7.93176831  1
  Mo  Mo29  1  3.11695490  6.39131412  -0.01994467  1
  Mo  Mo30  1  4.71993075  7.85471321  1.52319447  1
  Mo  Mo31  1  3.16426170  6.30046272  3.17394329  1
  Mo  Mo32  1  4.70464395  7.89452667  4.71099736  1
  Mo  Mo33  1  3.18682057  6.33754779  6.30035888  1
  Mo  Mo34  1  4.70259950  7.84811192  7.82835018  1
  Mo  Mo35  1  6.38797248  -0.01283547  -0.06261416  1
  Mo  Mo36  1  7.92556690  1.56215650  1.57368658  1
  Mo  Mo37  1  6.36620709  -0.03303626  3.11884256  1
  Mo  Mo38  1  7.92897333  1.64021096  4.71919169  1
  Mo  Mo39  1  6.31235892  -0.01223315  6.29899010  1
  Mo  Mo40  1  7.93729994  1.63139937  7.91729726  1
  Mo  Mo41  1  6.26008317  3.17791767  -0.00006982  1
  Mo  Mo42  1  7.89703863  4.74554926  1.57132610  1
  Mo  Mo43  1  6.31006012  3.19455362  3.19859588  1
  Mo  Mo44  1  7.90984522  4.68570031  4.73783683  1
  Mo  Mo45  1  6.25541447  3.11620068  6.30739858  1
  Mo  Mo46  1  7.89745243  4.71794649  7.87597532  1
  Mo  Mo47  1  6.28319843  6.32017912  -0.02314178  1
  Mo  Mo48  1  7.87775804  7.94048384  1.54551514  1
  Mo  Mo49  1  6.29554899  6.28302362  3.22917753  1
  Mo  Mo50  1  7.86607060  7.95171191  4.72901854  1
  Mo  Mo51  1  6.32006040  6.26235697  6.28402335  1
  Mo  Mo52  1  7.86704488  7.94680651  7.93251278  1
