# generated using pymatgen
data_Mo
_symmetry_space_group_name_H-M   'P 1'
_cell_length_a   9.46603830
_cell_length_b   9.46603830
_cell_length_c   9.46603730
_cell_angle_alpha   90.00000000
_cell_angle_beta   90.00000000
_cell_angle_gamma   90.00000000
_symmetry_Int_Tables_number   1
_chemical_formula_structural   Mo
_chemical_formula_sum   Mo53
_cell_volume   848.21261229
_cell_formula_units_Z   53
loop_
 _symmetry_equiv_pos_site_id
 _symmetry_equiv_pos_as_xyz
  1  'x, y, z'
loop_
 _atom_site_type_symbol
 _atom_site_label
 _atom_site_symmetry_multiplicity
 _atom_site_fract_x
 _atom_site_fract_y
 _atom_site_fract_z
 _atom_site_occupancy
  Mo  Mo0  1  1.72706424  1.31487060  2.34457082  1
  Mo  Mo1  1  0.02873467  0.02452375  3.13554410  1
  Mo  Mo2  1  1.62904539  1.59276942  4.72469465  1
  Mo  Mo3  1  -0.00687126  -0.03149520  6.36159482  1
  Mo  Mo4  1  1.57572532  1.60437994  7.95411169  1
  Mo  Mo5  1  -0.02799101  3.13789979  -0.02646911  1
  Mo  Mo6  1  1.56176501  4.69533143  1.62619707  1
  Mo  Mo7  1  0.01559700  3.16816657  3.11964313  1
  Mo  Mo8  1  1.59336203  4.65527261  4.73342993  1
  Mo  Mo9  1  0.01846128  3.14637714  6.31691669  1
  Mo  Mo10  1  1.57125046  4.75688992  7.89674493  1
  Mo  Mo11  1  -0.01777440  6.39319177  0.07763714  1
  Mo  Mo12  1  1.49916245  7.78451640  1.60248871  1
  Mo  Mo13  1  -0.04980859  6.27300950  3.20592701  1
  Mo  Mo14  1  1.46882957  7.89831202  4.65992897  1
  Mo  Mo15  1  0.02948274  6.26691167  6.31293967  1
  Mo  Mo16  1  1.54247337  7.89708201  7.82566731  1
  Mo  Mo17  1  3.10071475  0.00988841  0.04093755  1
  Mo  Mo18  1  4.77359644  1.56295227  1.57266417  1
  Mo  Mo19  1  3.19563906  -0.02401067  3.19417039  1
  Mo  Mo20  1  4.74760822  1.58445767  4.73115450  1
  Mo  Mo21  1  3.19036384  0.03039684  6.32097967  1
  Mo  Mo22  1  4.69342917  1.53795660  7.91295966  1
  Mo  Mo23  1  3.16750908  3.26532044  0.01055477  1
  Mo  Mo24  1  4.75594025  4.69163615  1.56027272  1
  Mo  Mo25  1  3.23074714  3.16409797  3.15960915  1
  Mo  Mo26  1  4.75348485  4.78256864  4.73777075  1
  Mo  Mo27  1  3.20647917  3.17687277  6.31470108  1
  Mo  Mo28  1  4.74957636  4.71981154  7.91283791  1
  Mo  Mo29  1  3.10785508  6.37210349  -0.01500737  1
  Mo  Mo30  1  4.72933554  7.84378664  1.54240065  1
  Mo  Mo31  1  3.16857521  6.30399185  3.18720546  1
  Mo  Mo32  1  4.71607677  7.89303100  4.73402314  1
  Mo  Mo33  1  3.15709108  6.30990326  6.29087747  1
  Mo  Mo34  1  4.68256951  7.84874528  7.83993409  1
  Mo  Mo35  1  6.38200573  -0.01553928  -0.02828245  1
  Mo  Mo36  1  7.93267084  1.56133045  1.53614764  1
  Mo  Mo37  1  6.34566184  -0.01097082  3.13529331  1
  Mo  Mo38  1  7.91174694  1.64410393  4.70175907  1
  Mo  Mo39  1  6.31103970  -0.02202797  6.26949236  1
  Mo  Mo40  1  7.94055927  1.63404176  7.91829806  1
  Mo  Mo41  1  6.25391639  3.17036271  0.00011234  1
  Mo  Mo42  1  7.88857595  4.72959324  1.56809078  1
  Mo  Mo43  1  6.29147633  3.20011622  3.20564558  1
  Mo  Mo44  1  7.92435689  4.67313996  4.72637421  1
  Mo  Mo45  1  6.25848449  3.11880659  6.30053346  1
  Mo  Mo46  1  7.92018610  4.73750149  7.89365864  1
  Mo  Mo47  1  6.29031517  6.32649564  -0.04587623  1
  Mo  Mo48  1  7.85794972  7.94622438  1.56749242  1
  Mo  Mo49  1  6.28991767  6.26892413  3.20984009  1
  Mo  Mo50  1  7.87407549  7.93789605  4.72112651  1
  Mo  Mo51  1  6.33261478  6.25054791  6.26870897  1
  Mo  Mo52  1  7.85042163  7.96776417  7.91217689  1
