# generated using pymatgen
data_Mo
_symmetry_space_group_name_H-M   'P 1'
_cell_length_a   9.46603830
_cell_length_b   9.46603830
_cell_length_c   9.46603730
_cell_angle_alpha   90.00000000
_cell_angle_beta   90.00000000
_cell_angle_gamma   90.00000000
_symmetry_Int_Tables_number   1
_chemical_formula_structural   Mo
_chemical_formula_sum   Mo53
_cell_volume   848.21261229
_cell_formula_units_Z   53
loop_
 _symmetry_equiv_pos_site_id
 _symmetry_equiv_pos_as_xyz
  1  'x, y, z'
loop_
 _atom_site_type_symbol
 _atom_site_label
 _atom_site_symmetry_multiplicity
 _atom_site_fract_x
 _atom_site_fract_y
 _atom_site_fract_z
 _atom_site_occupancy
  Mo  Mo0  1  2.68768702  1.31919328  1.24155368  1
  Mo  Mo1  1  -0.01358664  0.04635152  3.09407889  1
  Mo  Mo2  1  1.61102016  1.56073990  4.74474666  1
  Mo  Mo3  1  -0.00840334  -0.00463215  6.32135535  1
  Mo  Mo4  1  1.58755909  1.59959797  8.01675139  1
  Mo  Mo5  1  0.00157582  3.21118839  0.03316747  1
  Mo  Mo6  1  1.55830298  4.71411042  1.63742678  1
  Mo  Mo7  1  -0.00135704  3.13732385  3.13164265  1
  Mo  Mo8  1  1.60031918  4.73535674  4.73393665  1
  Mo  Mo9  1  0.01252880  3.11296445  6.29996321  1
  Mo  Mo10  1  1.50359207  4.78492352  7.92407784  1
  Mo  Mo11  1  -0.00933594  6.41206519  -0.01683766  1
  Mo  Mo12  1  1.55127339  7.86710531  1.60937799  1
  Mo  Mo13  1  0.00345167  6.27640843  3.18877599  1
  Mo  Mo14  1  1.51415929  7.91066437  4.72182630  1
  Mo  Mo15  1  0.02378177  6.22601636  6.26295197  1
  Mo  Mo16  1  1.48443165  7.90721513  7.81553335  1
  Mo  Mo17  1  3.06327062  -0.08713130  0.03673969  1
  Mo  Mo18  1  4.75459424  1.45233082  1.56828413  1
  Mo  Mo19  1  3.19033488  -0.01227992  3.19327426  1
  Mo  Mo20  1  4.78723688  1.56806064  4.76980315  1
  Mo  Mo21  1  3.09549180  0.00248471  6.30360520  1
  Mo  Mo22  1  4.69165620  1.56426312  7.97592993  1
  Mo  Mo23  1  3.17265670  3.18028442  0.01750579  1
  Mo  Mo24  1  4.77042255  4.77553929  1.54254149  1
  Mo  Mo25  1  3.19415105  3.17506533  3.14049688  1
  Mo  Mo26  1  4.79904083  4.71624261  4.76047812  1
  Mo  Mo27  1  3.18268112  3.15360339  6.25233429  1
  Mo  Mo28  1  4.78323034  4.78521153  7.84215558  1
  Mo  Mo29  1  3.15530816  6.28296095  0.02324929  1
  Mo  Mo30  1  4.73490254  7.85732805  1.56464816  1
  Mo  Mo31  1  3.17701988  6.30084172  3.19720349  1
  Mo  Mo32  1  4.73095156  7.90074568  4.76063288  1
  Mo  Mo33  1  3.11744622  6.25185819  6.27285127  1
  Mo  Mo34  1  4.67106168  7.95456968  7.89329400  1
  Mo  Mo35  1  6.28010970  -0.01901108  0.06418082  1
  Mo  Mo36  1  7.95027326  1.56834844  1.46660460  1
  Mo  Mo37  1  6.27320373  0.04301940  3.20625378  1
  Mo  Mo38  1  7.93051430  1.57916094  4.68580450  1
  Mo  Mo39  1  6.29391532  -0.05574443  6.28038151  1
  Mo  Mo40  1  7.87570478  1.59789788  7.88319406  1
  Mo  Mo41  1  6.28523714  3.12254176  -0.02255752  1
  Mo  Mo42  1  7.87309917  4.70210342  1.54296841  1
  Mo  Mo43  1  6.28980410  3.13953184  3.13063982  1
  Mo  Mo44  1  7.93427997  4.71516250  4.72607644  1
  Mo  Mo45  1  6.34652735  3.14874352  6.32066874  1
  Mo  Mo46  1  7.96207129  4.79526554  7.95614686  1
  Mo  Mo47  1  6.33341274  6.30603338  -0.03417644  1
  Mo  Mo48  1  7.83379668  7.91833000  1.60278616  1
  Mo  Mo49  1  6.31059684  6.30118607  3.11038567  1
  Mo  Mo50  1  7.89614160  7.90952710  4.69981952  1
  Mo  Mo51  1  6.34976976  6.28921281  6.28944979  1
  Mo  Mo52  1  7.86531706  7.96433650  7.80923079  1
