# generated using pymatgen
data_Mo
_symmetry_space_group_name_H-M   'P 1'
_cell_length_a   9.46603830
_cell_length_b   9.46603830
_cell_length_c   9.46603730
_cell_angle_alpha   90.00000000
_cell_angle_beta   90.00000000
_cell_angle_gamma   90.00000000
_symmetry_Int_Tables_number   1
_chemical_formula_structural   Mo
_chemical_formula_sum   Mo53
_cell_volume   848.21261229
_cell_formula_units_Z   53
loop_
 _symmetry_equiv_pos_site_id
 _symmetry_equiv_pos_as_xyz
  1  'x, y, z'
loop_
 _atom_site_type_symbol
 _atom_site_label
 _atom_site_symmetry_multiplicity
 _atom_site_fract_x
 _atom_site_fract_y
 _atom_site_fract_z
 _atom_site_occupancy
  Mo  Mo0  1  1.32541846  2.44862790  1.46505274  1
  Mo  Mo1  1  -0.01439692  0.02053967  3.08137410  1
  Mo  Mo2  1  1.56831689  1.52189429  4.76054138  1
  Mo  Mo3  1  -0.02645582  0.02540106  6.27755541  1
  Mo  Mo4  1  1.59301967  1.58805211  7.98446305  1
  Mo  Mo5  1  0.03199741  3.16913355  0.03521543  1
  Mo  Mo6  1  1.56029100  4.77962242  1.57278671  1
  Mo  Mo7  1  -0.02108674  3.15403767  3.16083970  1
  Mo  Mo8  1  1.58246749  4.74553406  4.74281996  1
  Mo  Mo9  1  0.01827530  3.09170966  6.29093048  1
  Mo  Mo10  1  1.56619968  4.75971153  7.97097182  1
  Mo  Mo11  1  -0.00143798  6.37674692  -0.03986293  1
  Mo  Mo12  1  1.57037357  7.93326003  1.60488388  1
  Mo  Mo13  1  0.03818518  6.34011470  3.13981571  1
  Mo  Mo14  1  1.57673338  7.90307731  4.78472624  1
  Mo  Mo15  1  -0.02212547  6.28044647  6.26448630  1
  Mo  Mo16  1  1.49351889  7.94310770  7.90814223  1
  Mo  Mo17  1  3.06749350  -0.07148392  0.00013210  1
  Mo  Mo18  1  4.71138018  1.48150202  1.58897724  1
  Mo  Mo19  1  3.15689807  0.01014466  3.16607705  1
  Mo  Mo20  1  4.76347770  1.57498561  4.77946190  1
  Mo  Mo21  1  3.05761967  -0.04846712  6.31013387  1
  Mo  Mo22  1  4.72302794  1.61441277  7.99590600  1
  Mo  Mo23  1  3.14182918  3.11921013  -0.02655817  1
  Mo  Mo24  1  4.73518008  4.76171467  1.53658285  1
  Mo  Mo25  1  3.18360773  3.17313688  3.16268239  1
  Mo  Mo26  1  4.78363235  4.69152072  4.72230258  1
  Mo  Mo27  1  3.15956917  3.14622311  6.29757168  1
  Mo  Mo28  1  4.74284785  4.79700238  7.85870720  1
  Mo  Mo29  1  3.19081399  6.25108910  0.00166283  1
  Mo  Mo30  1  4.70985837  7.88724647  1.56823217  1
  Mo  Mo31  1  3.18331395  6.28464944  3.17765321  1
  Mo  Mo32  1  4.72175778  7.89206651  4.75719069  1
  Mo  Mo33  1  3.16074008  6.26621565  6.28980956  1
  Mo  Mo34  1  4.68374642  8.00510937  7.90415696  1
  Mo  Mo35  1  6.26695220  -0.04528878  0.02780056  1
  Mo  Mo36  1  7.93477113  1.54421891  1.47777548  1
  Mo  Mo37  1  6.29160577  0.01464983  3.21771408  1
  Mo  Mo38  1  7.97082862  1.52837700  4.71144776  1
  Mo  Mo39  1  6.26678320  -0.02877542  6.36638502  1
  Mo  Mo40  1  7.84374034  1.57614852  7.89248849  1
  Mo  Mo41  1  6.30751684  3.10178774  -0.04319985  1
  Mo  Mo42  1  7.88143897  4.73507152  1.53071979  1
  Mo  Mo43  1  6.32190227  3.10373679  3.08328733  1
  Mo  Mo44  1  7.89415483  4.74301361  4.71999080  1
  Mo  Mo45  1  6.38822181  3.15226266  6.32190743  1
  Mo  Mo46  1  7.92978603  4.79024335  7.92225453  1
  Mo  Mo47  1  6.35715735  6.29186005  0.00838469  1
  Mo  Mo48  1  7.86558989  7.90017020  1.57573276  1
  Mo  Mo49  1  6.34444812  6.32014584  3.11654679  1
  Mo  Mo50  1  7.89129155  7.90756085  4.68551299  1
  Mo  Mo51  1  6.32420614  6.33059581  6.30389666  1
  Mo  Mo52  1  7.90148239  7.93515540  7.79627803  1
