# generated using pymatgen
data_Mo
_symmetry_space_group_name_H-M   'P 1'
_cell_length_a   9.46603830
_cell_length_b   9.46603830
_cell_length_c   9.46603730
_cell_angle_alpha   90.00000000
_cell_angle_beta   90.00000000
_cell_angle_gamma   90.00000000
_symmetry_Int_Tables_number   1
_chemical_formula_structural   Mo
_chemical_formula_sum   Mo53
_cell_volume   848.21261229
_cell_formula_units_Z   53
loop_
 _symmetry_equiv_pos_site_id
 _symmetry_equiv_pos_as_xyz
  1  'x, y, z'
loop_
 _atom_site_type_symbol
 _atom_site_label
 _atom_site_symmetry_multiplicity
 _atom_site_fract_x
 _atom_site_fract_y
 _atom_site_fract_z
 _atom_site_occupancy
  Mo  Mo0  1  0.05191673  0.74148685  1.61292224  1
  Mo  Mo1  1  0.01776840  -0.01495844  3.09477874  1
  Mo  Mo2  1  1.55417135  1.52718372  4.76319923  1
  Mo  Mo3  1  -0.04660277  -0.00197276  6.29405403  1
  Mo  Mo4  1  1.57231510  1.57351139  7.91836884  1
  Mo  Mo5  1  0.02321417  3.07491067  -0.01017198  1
  Mo  Mo6  1  1.54846767  4.83006067  1.55158312  1
  Mo  Mo7  1  -0.02002492  3.21123824  3.17464440  1
  Mo  Mo8  1  1.55162807  4.72523638  4.76340568  1
  Mo  Mo9  1  0.00903269  3.12137198  6.29604018  1
  Mo  Mo10  1  1.63534113  4.74482169  7.97574794  1
  Mo  Mo11  1  0.01830823  6.32803670  -0.01038884  1
  Mo  Mo12  1  1.56458846  7.95280189  1.57566046  1
  Mo  Mo13  1  0.06060771  6.38478051  3.11853520  1
  Mo  Mo14  1  1.59920224  7.87157506  4.78480236  1
  Mo  Mo15  1  -0.04214292  6.32921027  6.30394789  1
  Mo  Mo16  1  1.53283873  7.96239099  8.00227075  1
  Mo  Mo17  1  3.09447501  0.01810841  -0.01470284  1
  Mo  Mo18  1  4.68480199  1.56789114  1.60910289  1
  Mo  Mo19  1  3.14121306  0.01853223  3.15872805  1
  Mo  Mo20  1  4.72648476  1.57868603  4.78289392  1
  Mo  Mo21  1  3.09889919  -0.04740277  6.31535235  1
  Mo  Mo22  1  4.74166335  1.64585551  7.95631061  1
  Mo  Mo23  1  3.13833772  3.10321482  -0.05459274  1
  Mo  Mo24  1  4.70870354  4.68730500  1.54309701  1
  Mo  Mo25  1  3.17000578  3.16307081  3.18364015  1
  Mo  Mo26  1  4.75465785  4.70435882  4.67918101  1
  Mo  Mo27  1  3.15644234  3.13862783  6.34157279  1
  Mo  Mo28  1  4.72084862  4.77606563  7.91398568  1
  Mo  Mo29  1  3.19796598  6.28144977  -0.05588232  1
  Mo  Mo30  1  4.69148171  7.91373423  1.57371493  1
  Mo  Mo31  1  3.19263423  6.27689854  3.15010688  1
  Mo  Mo32  1  4.71841318  7.89027479  4.74482338  1
  Mo  Mo33  1  3.19633699  6.29106169  6.30966674  1
  Mo  Mo34  1  4.69851120  7.96551660  7.91525622  1
  Mo  Mo35  1  6.32996997  -0.06392712  -0.02072281  1
  Mo  Mo36  1  7.89243443  1.50637005  1.52557670  1
  Mo  Mo37  1  6.33813852  -0.03847303  3.19324165  1
  Mo  Mo38  1  7.94944589  1.52055536  4.72607896  1
  Mo  Mo39  1  6.24373385  0.03575905  6.40188025  1
  Mo  Mo40  1  7.88541827  1.58210224  7.93910754  1
  Mo  Mo41  1  6.31456663  3.11606712  -0.03057307  1
  Mo  Mo42  1  7.90205195  4.76927726  1.52127304  1
  Mo  Mo43  1  6.34364607  3.10977928  3.09935968  1
  Mo  Mo44  1  7.87059308  4.75092808  4.70239203  1
  Mo  Mo45  1  6.35119593  3.15548619  6.28212874  1
  Mo  Mo46  1  7.90036115  4.75915022  7.84430839  1
  Mo  Mo47  1  6.34541661  6.28374417  0.02483178  1
  Mo  Mo48  1  7.90822914  7.90669407  1.51759540  1
  Mo  Mo49  1  6.34763107  6.29558645  3.17562184  1
  Mo  Mo50  1  7.87607299  7.92008350  4.68447925  1
  Mo  Mo51  1  6.27492387  6.33178927  6.28973024  1
  Mo  Mo52  1  7.92690991  7.90785163  7.85577318  1
