# generated using pymatgen
data_Mo
_symmetry_space_group_name_H-M   'P 1'
_cell_length_a   9.46603830
_cell_length_b   9.46603830
_cell_length_c   9.46603730
_cell_angle_alpha   90.00000000
_cell_angle_beta   90.00000000
_cell_angle_gamma   90.00000000
_symmetry_Int_Tables_number   1
_chemical_formula_structural   Mo
_chemical_formula_sum   Mo53
_cell_volume   848.21261229
_cell_formula_units_Z   53
loop_
 _symmetry_equiv_pos_site_id
 _symmetry_equiv_pos_as_xyz
  1  'x, y, z'
loop_
 _atom_site_type_symbol
 _atom_site_label
 _atom_site_symmetry_multiplicity
 _atom_site_fract_x
 _atom_site_fract_y
 _atom_site_fract_z
 _atom_site_occupancy
  Mo  Mo0  1  1.42476671  3.15154287  2.04309108  1
  Mo  Mo1  1  0.04483657  -0.01700433  3.14269677  1
  Mo  Mo2  1  1.54885295  1.54618135  4.74913102  1
  Mo  Mo3  1  -0.03514422  -0.05314083  6.36068623  1
  Mo  Mo4  1  1.53549333  1.55843952  7.86888081  1
  Mo  Mo5  1  -0.01578294  3.03097351  -0.04919756  1
  Mo  Mo6  1  1.52100752  4.79266479  1.57542860  1
  Mo  Mo7  1  0.00808466  3.24720106  3.15663140  1
  Mo  Mo8  1  1.53741170  4.71890876  4.78283884  1
  Mo  Mo9  1  -0.01913096  3.18257032  6.29699650  1
  Mo  Mo10  1  1.62177797  4.74499153  7.93431208  1
  Mo  Mo11  1  0.02921302  6.28938757  0.01057567  1
  Mo  Mo12  1  1.56196860  7.93447141  1.52017686  1
  Mo  Mo13  1  0.05781694  6.36787570  3.16064305  1
  Mo  Mo14  1  1.56626210  7.84567641  4.74335522  1
  Mo  Mo15  1  -0.01961203  6.32658131  6.35145692  1
  Mo  Mo16  1  1.56926485  7.94537936  8.01948856  1
  Mo  Mo17  1  3.16098170  0.09893036  -0.00416160  1
  Mo  Mo18  1  4.69820740  1.60256010  1.61114627  1
  Mo  Mo19  1  3.18603770  0.01362497  3.17567856  1
  Mo  Mo20  1  4.70252161  1.55658368  4.75749488  1
  Mo  Mo21  1  3.18156866  0.00182902  6.30460553  1
  Mo  Mo22  1  4.75034604  1.62170507  7.90170001  1
  Mo  Mo23  1  3.15357454  3.14049848  -0.02669261  1
  Mo  Mo24  1  4.70473759  4.64442679  1.55835504  1
  Mo  Mo25  1  3.13244372  3.14837491  3.18385835  1
  Mo  Mo26  1  4.71093284  4.72540378  4.68320605  1
  Mo  Mo27  1  3.16819083  3.14902615  6.32295701  1
  Mo  Mo28  1  4.75295721  4.73781477  7.93829979  1
  Mo  Mo29  1  3.18577818  6.34728482  -0.05813562  1
  Mo  Mo30  1  4.70315414  7.91978648  1.56424392  1
  Mo  Mo31  1  3.20348931  6.29494765  3.13412779  1
  Mo  Mo32  1  4.71627698  7.90369035  4.72402151  1
  Mo  Mo33  1  3.18691265  6.30470710  6.30566014  1
  Mo  Mo34  1  4.72223323  7.90467094  7.93218136  1
  Mo  Mo35  1  6.38383152  -0.03175265  -0.01269574  1
  Mo  Mo36  1  7.86329047  1.49224331  1.58406154  1
  Mo  Mo37  1  6.35217715  -0.05323129  3.16457920  1
  Mo  Mo38  1  7.88027672  1.55432320  4.71552024  1
  Mo  Mo39  1  6.25337926  0.06743661  6.34549898  1
  Mo  Mo40  1  7.96484142  1.59639634  7.95838012  1
  Mo  Mo41  1  6.32118658  3.15153679  0.01132016  1
  Mo  Mo42  1  7.91400430  4.75656217  1.50461027  1
  Mo  Mo43  1  6.33785384  3.13981132  3.16302494  1
  Mo  Mo44  1  7.89621665  4.75783197  4.68929849  1
  Mo  Mo45  1  6.27422548  3.17571525  6.24245581  1
  Mo  Mo46  1  7.91373542  4.72872570  7.80725183  1
  Mo  Mo47  1  6.30331728  6.26529314  0.00984412  1
  Mo  Mo48  1  7.92911660  7.91217211  1.47622922  1
  Mo  Mo49  1  6.31345430  6.26951570  3.19739354  1
  Mo  Mo50  1  7.87930832  7.93091777  4.71491584  1
  Mo  Mo51  1  6.24748829  6.30641207  6.27376345  1
  Mo  Mo52  1  7.91702044  7.88132982  7.93468217  1
