# generated using pymatgen
data_Mo
_symmetry_space_group_name_H-M   'P 1'
_cell_length_a   9.46603830
_cell_length_b   9.46603830
_cell_length_c   9.46603730
_cell_angle_alpha   90.00000000
_cell_angle_beta   90.00000000
_cell_angle_gamma   90.00000000
_symmetry_Int_Tables_number   1
_chemical_formula_structural   Mo
_chemical_formula_sum   Mo53
_cell_volume   848.21261229
_cell_formula_units_Z   53
loop_
 _symmetry_equiv_pos_site_id
 _symmetry_equiv_pos_as_xyz
  1  'x, y, z'
loop_
 _atom_site_type_symbol
 _atom_site_label
 _atom_site_symmetry_multiplicity
 _atom_site_fract_x
 _atom_site_fract_y
 _atom_site_fract_z
 _atom_site_occupancy
  Mo  Mo0  1  1.55985643  0.12903946  1.50936685  1
  Mo  Mo1  1  0.03176404  0.00258865  3.20051294  1
  Mo  Mo2  1  1.51798762  1.53704193  4.73251433  1
  Mo  Mo3  1  -0.00544244  -0.05593751  6.40127461  1
  Mo  Mo4  1  1.52650163  1.54845909  7.86254506  1
  Mo  Mo5  1  -0.02586142  3.09548383  -0.02502227  1
  Mo  Mo6  1  1.50586255  4.69189983  1.59381783  1
  Mo  Mo7  1  0.02592661  3.20339133  3.14344029  1
  Mo  Mo8  1  1.55651741  4.73936238  4.76942750  1
  Mo  Mo9  1  -0.04465406  3.20072716  6.27937861  1
  Mo  Mo10  1  1.55730297  4.72789854  7.90563246  1
  Mo  Mo11  1  0.02089400  6.28752092  0.00439883  1
  Mo  Mo12  1  1.55869118  7.90943602  1.48937822  1
  Mo  Mo13  1  0.02439959  6.31418293  3.21471259  1
  Mo  Mo14  1  1.52456547  7.85927327  4.72105666  1
  Mo  Mo15  1  0.01589076  6.29904493  6.36869881  1
  Mo  Mo16  1  1.59420288  7.90331383  7.96766825  1
  Mo  Mo17  1  3.22130066  0.10908425  -0.00497315  1
  Mo  Mo18  1  4.73887196  1.55808049  1.58620138  1
  Mo  Mo19  1  3.23883041  -0.00103980  3.17241453  1
  Mo  Mo20  1  4.70248994  1.54132912  4.70547069  1
  Mo  Mo21  1  3.22475735  0.04446016  6.28292566  1
  Mo  Mo22  1  4.77244304  1.56574653  7.89104290  1
  Mo  Mo23  1  3.16003900  3.21533495  0.01638679  1
  Mo  Mo24  1  4.70351043  4.68743129  1.57706012  1
  Mo  Mo25  1  3.09466512  3.14540077  3.16593583  1
  Mo  Mo26  1  4.67142798  4.73264413  4.73036694  1
  Mo  Mo27  1  3.16942466  3.17950803  6.27424799  1
  Mo  Mo28  1  4.77576504  4.69931557  7.91374739  1
  Mo  Mo29  1  3.17686986  6.38625810  0.00940217  1
  Mo  Mo30  1  4.74287012  7.89925574  1.53308160  1
  Mo  Mo31  1  3.19036041  6.32552800  3.13661787  1
  Mo  Mo32  1  4.71673388  7.90191178  4.70474169  1
  Mo  Mo33  1  3.15875415  6.32121036  6.29175119  1
  Mo  Mo34  1  4.75961092  7.89267601  7.92768208  1
  Mo  Mo35  1  6.37085132  0.03996318  0.02740639  1
  Mo  Mo36  1  7.89097719  1.52672118  1.61309993  1
  Mo  Mo37  1  6.33120923  -0.02330402  3.16484935  1
  Mo  Mo38  1  7.85139024  1.60752109  4.70787811  1
  Mo  Mo39  1  6.29778599  0.03121251  6.27350894  1
  Mo  Mo40  1  7.98921485  1.56054715  7.89768945  1
  Mo  Mo41  1  6.33021970  3.16500053  0.04327275  1
  Mo  Mo42  1  7.90118459  4.71084811  1.49839377  1
  Mo  Mo43  1  6.29780039  3.17345263  3.22271948  1
  Mo  Mo44  1  7.93004471  4.77726022  4.68611318  1
  Mo  Mo45  1  6.23916256  3.20083710  6.25089525  1
  Mo  Mo46  1  7.94480047  4.70719904  7.84889350  1
  Mo  Mo47  1  6.27083780  6.24900471  -0.00999019  1
  Mo  Mo48  1  7.93244929  7.89628514  1.48845090  1
  Mo  Mo49  1  6.27916999  6.27993859  3.15453127  1
  Mo  Mo50  1  7.91032390  7.93429171  4.76063651  1
  Mo  Mo51  1  6.26704560  6.29824568  6.28010429  1
  Mo  Mo52  1  7.88287481  7.86185064  7.97124728  1
