# generated using pymatgen
data_Mo
_symmetry_space_group_name_H-M   'P 1'
_cell_length_a   9.46603830
_cell_length_b   9.46603830
_cell_length_c   9.46603730
_cell_angle_alpha   90.00000000
_cell_angle_beta   90.00000000
_cell_angle_gamma   90.00000000
_symmetry_Int_Tables_number   1
_chemical_formula_structural   Mo
_chemical_formula_sum   Mo53
_cell_volume   848.21261229
_cell_formula_units_Z   53
loop_
 _symmetry_equiv_pos_site_id
 _symmetry_equiv_pos_as_xyz
  1  'x, y, z'
loop_
 _atom_site_type_symbol
 _atom_site_label
 _atom_site_symmetry_multiplicity
 _atom_site_fract_x
 _atom_site_fract_y
 _atom_site_fract_z
 _atom_site_occupancy
  Mo  Mo0  1  1.21686289  0.29678641  1.44693925  1
  Mo  Mo1  1  -0.01185252  -0.00084708  3.20579486  1
  Mo  Mo2  1  1.49618473  1.51258420  4.72439946  1
  Mo  Mo3  1  0.01466842  -0.01397119  6.38589613  1
  Mo  Mo4  1  1.56081756  1.54951440  7.88504087  1
  Mo  Mo5  1  -0.00102006  3.17806664  0.01377915  1
  Mo  Mo6  1  1.51028437  4.63394757  1.58158861  1
  Mo  Mo7  1  -0.00411489  3.11452856  3.16159821  1
  Mo  Mo8  1  1.57328005  4.74966659  4.71659293  1
  Mo  Mo9  1  -0.03936387  3.15615877  6.26472376  1
  Mo  Mo10  1  1.52648441  4.68800374  7.91160722  1
  Mo  Mo11  1  0.00069563  6.33196568  0.01003847  1
  Mo  Mo12  1  1.53724339  7.88797393  1.51445177  1
  Mo  Mo13  1  -0.01338266  6.28267363  3.20889014  1
  Mo  Mo14  1  1.51904182  7.90157411  4.73630954  1
  Mo  Mo15  1  0.02899575  6.29695002  6.34484486  1
  Mo  Mo16  1  1.60542124  7.86745908  7.89866752  1
  Mo  Mo17  1  3.20750107  0.05807179  -0.02463498  1
  Mo  Mo18  1  4.76726889  1.52103505  1.55216769  1
  Mo  Mo19  1  3.22665656  -0.01784037  3.12533258  1
  Mo  Mo20  1  4.71595599  1.56526973  4.68216917  1
  Mo  Mo21  1  3.19864360  0.04582147  6.26844857  1
  Mo  Mo22  1  4.79242982  1.53126251  7.91033215  1
  Mo  Mo23  1  3.16538835  3.26719451  0.03026093  1
  Mo  Mo24  1  4.69702567  4.75698789  1.59335113  1
  Mo  Mo25  1  3.10995700  3.15296915  3.14915491  1
  Mo  Mo26  1  4.67711936  4.74332112  4.76552762  1
  Mo  Mo27  1  3.14801566  3.19641061  6.26601579  1
  Mo  Mo28  1  4.74187038  4.68650809  7.88004173  1
  Mo  Mo29  1  3.18450863  6.37446350  0.06512708  1
  Mo  Mo30  1  4.77964490  7.87606596  1.50554658  1
  Mo  Mo31  1  3.13841171  6.34508855  3.15694425  1
  Mo  Mo32  1  4.73848922  7.87387777  4.69513025  1
  Mo  Mo33  1  3.15547052  6.34819025  6.30540799  1
  Mo  Mo34  1  4.78953236  7.91323039  7.88067384  1
  Mo  Mo35  1  6.33559447  0.06896603  0.04250270  1
  Mo  Mo36  1  7.95626401  1.58376993  1.59772969  1
  Mo  Mo37  1  6.31828309  0.00838606  3.18375392  1
  Mo  Mo38  1  7.89715809  1.65080789  4.72751394  1
  Mo  Mo39  1  6.33299653  -0.03552279  6.26702419  1
  Mo  Mo40  1  7.94851723  1.50056170  7.81893859  1
  Mo  Mo41  1  6.31822390  3.14387738  0.04127808  1
  Mo  Mo42  1  7.87427689  4.68582764  1.53212654  1
  Mo  Mo43  1  6.24294694  3.20584491  3.22283258  1
  Mo  Mo44  1  7.91232050  4.79391559  4.71129484  1
  Mo  Mo45  1  6.27336361  3.19734507  6.30428181  1
  Mo  Mo46  1  7.95632271  4.69005208  7.92151281  1
  Mo  Mo47  1  6.27787897  6.26705398  -0.01437503  1
  Mo  Mo48  1  7.92225527  7.87397617  1.54442034  1
  Mo  Mo49  1  6.27731994  6.31532290  3.10457223  1
  Mo  Mo50  1  7.94260472  7.93453156  4.78319855  1
  Mo  Mo51  1  6.31018970  6.31422944  6.30705733  1
  Mo  Mo52  1  7.87454865  7.87538563  7.96017736  1
