# generated using pymatgen
data_Mo
_symmetry_space_group_name_H-M   'P 1'
_cell_length_a   9.46603830
_cell_length_b   9.46603830
_cell_length_c   9.46603730
_cell_angle_alpha   90.00000000
_cell_angle_beta   90.00000000
_cell_angle_gamma   90.00000000
_symmetry_Int_Tables_number   1
_chemical_formula_structural   Mo
_chemical_formula_sum   Mo53
_cell_volume   848.21261229
_cell_formula_units_Z   53
loop_
 _symmetry_equiv_pos_site_id
 _symmetry_equiv_pos_as_xyz
  1  'x, y, z'
loop_
 _atom_site_type_symbol
 _atom_site_label
 _atom_site_symmetry_multiplicity
 _atom_site_fract_x
 _atom_site_fract_y
 _atom_site_fract_z
 _atom_site_occupancy
  Mo  Mo0  1  2.03312116  1.87742380  2.49462606  1
  Mo  Mo1  1  -0.03058547  -0.01632537  3.17797765  1
  Mo  Mo2  1  1.51165889  1.50701467  4.72239464  1
  Mo  Mo3  1  0.01858373  0.00691194  6.36577467  1
  Mo  Mo4  1  1.58817501  1.55198828  7.90170870  1
  Mo  Mo5  1  0.00988423  3.18192562  0.01405916  1
  Mo  Mo6  1  1.51582777  4.64588402  1.57460192  1
  Mo  Mo7  1  -0.03324973  3.08936138  3.17571607  1
  Mo  Mo8  1  1.56780413  4.74053822  4.69151269  1
  Mo  Mo9  1  -0.02556470  3.13297832  6.26929818  1
  Mo  Mo10  1  1.53382758  4.67728103  7.91702666  1
  Mo  Mo11  1  -0.00929057  6.36256189  0.01892519  1
  Mo  Mo12  1  1.52296457  7.87615927  1.54063262  1
  Mo  Mo13  1  -0.02609907  6.28303911  3.18280711  1
  Mo  Mo14  1  1.53074075  7.91816550  4.74612799  1
  Mo  Mo15  1  0.02605792  6.30581902  6.32661329  1
  Mo  Mo16  1  1.60303526  7.85937667  7.87444948  1
  Mo  Mo17  1  3.17111090  0.02340299  -0.03457801  1
  Mo  Mo18  1  4.76717882  1.52865983  1.54372796  1
  Mo  Mo19  1  3.19836583  -0.01965128  3.09772075  1
  Mo  Mo20  1  4.72192269  1.58290978  4.69280174  1
  Mo  Mo21  1  3.17170956  0.03350999  6.26482141  1
  Mo  Mo22  1  4.78834611  1.53037664  7.91534423  1
  Mo  Mo23  1  3.17024328  3.26084253  0.02362104  1
  Mo  Mo24  1  4.69702687  4.77439315  1.59552564  1
  Mo  Mo25  1  3.13913067  3.15424234  3.14873063  1
  Mo  Mo26  1  4.69815063  4.75531124  4.76867159  1
  Mo  Mo27  1  3.13485077  3.19104251  6.28179745  1
  Mo  Mo28  1  4.71818737  4.69659804  7.87454561  1
  Mo  Mo29  1  3.18863623  6.35948361  0.06609380  1
  Mo  Mo30  1  4.78270428  7.87636598  1.50124722  1
  Mo  Mo31  1  3.10804483  6.34886422  3.17144435  1
  Mo  Mo32  1  4.75412595  7.86531283  4.69363274  1
  Mo  Mo33  1  3.16444776  6.35604777  6.32172467  1
  Mo  Mo34  1  4.79008050  7.91766076  7.85075290  1
  Mo  Mo35  1  6.33237185  0.04857131  0.03364659  1
  Mo  Mo36  1  7.98159686  1.60360669  1.57797179  1
  Mo  Mo37  1  6.31891756  0.01810800  3.18776663  1
  Mo  Mo38  1  7.92731999  1.65628109  4.74562494  1
  Mo  Mo39  1  6.33303611  -0.05553344  6.28556566  1
  Mo  Mo40  1  7.92292179  1.48864600  7.80781708  1
  Mo  Mo41  1  6.30114505  3.13115635  0.02963951  1
  Mo  Mo42  1  7.86471733  4.69205694  1.56121962  1
  Mo  Mo43  1  6.22528623  3.21685613  3.20143658  1
  Mo  Mo44  1  7.88818241  4.79180186  4.73534722  1
  Mo  Mo45  1  6.30042976  3.18126586  6.33214214  1
  Mo  Mo46  1  7.95208754  4.68774659  7.94440106  1
  Mo  Mo47  1  6.29268318  6.28945615  -0.01118262  1
  Mo  Mo48  1  7.91113132  7.86878499  1.57652158  1
  Mo  Mo49  1  6.28780254  6.33364521  3.10328270  1
  Mo  Mo50  1  7.94974223  7.93050626  4.77737509  1
  Mo  Mo51  1  6.32820437  6.31788346  6.32191427  1
  Mo  Mo52  1  7.89458606  7.89509862  7.94542257  1
