# generated using pymatgen
data_Mo
_symmetry_space_group_name_H-M   'P 1'
_cell_length_a   9.44236900
_cell_length_b   9.44236900
_cell_length_c   9.44236900
_cell_angle_alpha   90.00000000
_cell_angle_beta   90.00000000
_cell_angle_gamma   90.00000000
_symmetry_Int_Tables_number   1
_chemical_formula_structural   Mo
_chemical_formula_sum   Mo53
_cell_volume   841.86587335
_cell_formula_units_Z   53
loop_
 _symmetry_equiv_pos_site_id
 _symmetry_equiv_pos_as_xyz
  1  'x, y, z'
loop_
 _atom_site_type_symbol
 _atom_site_label
 _atom_site_symmetry_multiplicity
 _atom_site_fract_x
 _atom_site_fract_y
 _atom_site_fract_z
 _atom_site_occupancy
  Mo  Mo0  1  1.35958945  1.53553217  0.79685977  1
  Mo  Mo1  1  -0.00198215  -0.03041296  3.01805405  1
  Mo  Mo2  1  1.54903947  1.52143960  4.70599505  1
  Mo  Mo3  1  -0.04033134  -0.00442503  6.37503535  1
  Mo  Mo4  1  1.57616647  1.52341965  7.88647350  1
  Mo  Mo5  1  -0.02660063  3.08981903  -0.00947836  1
  Mo  Mo6  1  1.54267076  4.68486255  1.57507656  1
  Mo  Mo7  1  -0.00697029  3.07178092  3.18825992  1
  Mo  Mo8  1  1.56182924  4.70329417  4.69517597  1
  Mo  Mo9  1  0.00980885  3.12672739  6.34779992  1
  Mo  Mo10  1  1.60069171  4.74474114  7.86856275  1
  Mo  Mo11  1  0.03319498  6.34419454  0.00021895  1
  Mo  Mo12  1  1.53000322  7.87179619  1.51169821  1
  Mo  Mo13  1  -0.00893198  6.27267663  3.14973270  1
  Mo  Mo14  1  1.57378960  7.88806215  4.77033331  1
  Mo  Mo15  1  0.04735301  6.29398189  6.30127672  1
  Mo  Mo16  1  1.54511844  7.89442252  7.89454806  1
  Mo  Mo17  1  3.11682537  0.01415933  0.01959735  1
  Mo  Mo18  1  4.73513309  1.62561469  1.52785566  1
  Mo  Mo19  1  3.16066403  -0.04432997  3.15925868  1
  Mo  Mo20  1  4.69780049  1.58509054  4.70457041  1
  Mo  Mo21  1  3.12656476  0.04019574  6.32624252  1
  Mo  Mo22  1  4.69827072  1.59992129  7.79832763  1
  Mo  Mo23  1  3.17293321  3.22236210  -0.07680650  1
  Mo  Mo24  1  4.74304223  4.77233295  1.56940428  1
  Mo  Mo25  1  3.16732095  3.09467724  3.07236313  1
  Mo  Mo26  1  4.67208935  4.72473633  4.69529381  1
  Mo  Mo27  1  3.13660644  3.16159141  6.23720347  1
  Mo  Mo28  1  4.75827857  4.72698049  7.86168124  1
  Mo  Mo29  1  3.14358887  6.30381989  0.03255021  1
  Mo  Mo30  1  4.70405588  7.91848027  1.58255114  1
  Mo  Mo31  1  3.17948011  6.26922364  3.08533077  1
  Mo  Mo32  1  4.71433792  7.91369421  4.77645324  1
  Mo  Mo33  1  3.17378405  6.30252566  6.30729374  1
  Mo  Mo34  1  4.72132177  7.85460779  7.84407395  1
  Mo  Mo35  1  6.27400069  -0.00331794  0.01949055  1
  Mo  Mo36  1  7.86370781  1.53474498  1.53940085  1
  Mo  Mo37  1  6.31814029  0.06732149  3.21983232  1
  Mo  Mo38  1  7.88786537  1.55455381  4.75750683  1
  Mo  Mo39  1  6.27451725  -0.02276969  6.29790415  1
  Mo  Mo40  1  7.85752893  1.51615977  7.85456517  1
  Mo  Mo41  1  6.30729970  3.25084114  -0.01222938  1
  Mo  Mo42  1  7.87598755  4.72821994  1.66213236  1
  Mo  Mo43  1  6.30624654  3.15752354  3.15387519  1
  Mo  Mo44  1  7.92854718  4.72300740  4.78468391  1
  Mo  Mo45  1  6.28485044  3.15277839  6.26458532  1
  Mo  Mo46  1  7.94269861  4.74453915  7.83515776  1
  Mo  Mo47  1  6.30397285  6.33089326  0.00558063  1
  Mo  Mo48  1  7.88695468  7.87697758  1.60916919  1
  Mo  Mo49  1  6.24364429  6.32063996  3.17176478  1
  Mo  Mo50  1  7.87575022  7.80540479  4.80058325  1
  Mo  Mo51  1  6.27571315  6.22858270  6.30702188  1
  Mo  Mo52  1  7.91566944  7.89721835  7.86752264  1
