# generated using pymatgen
data_Mo
_symmetry_space_group_name_H-M   'P 1'
_cell_length_a   9.44236900
_cell_length_b   9.44236900
_cell_length_c   9.44236900
_cell_angle_alpha   90.00000000
_cell_angle_beta   90.00000000
_cell_angle_gamma   90.00000000
_symmetry_Int_Tables_number   1
_chemical_formula_structural   Mo
_chemical_formula_sum   Mo53
_cell_volume   841.86587335
_cell_formula_units_Z   53
loop_
 _symmetry_equiv_pos_site_id
 _symmetry_equiv_pos_as_xyz
  1  'x, y, z'
loop_
 _atom_site_type_symbol
 _atom_site_label
 _atom_site_symmetry_multiplicity
 _atom_site_fract_x
 _atom_site_fract_y
 _atom_site_fract_z
 _atom_site_occupancy
  Mo  Mo0  1  1.18664321  0.94443168  1.37241228  1
  Mo  Mo1  1  -0.01019845  -0.01948439  3.05334295  1
  Mo  Mo2  1  1.56155376  1.56767166  4.72073103  1
  Mo  Mo3  1  -0.01201689  0.02041060  6.34052643  1
  Mo  Mo4  1  1.60374128  1.57398824  7.94235051  1
  Mo  Mo5  1  -0.01781543  3.10462795  -0.00897495  1
  Mo  Mo6  1  1.53493552  4.69128822  1.51755281  1
  Mo  Mo7  1  -0.04604700  3.11134548  3.18473878  1
  Mo  Mo8  1  1.57908724  4.73882327  4.65686718  1
  Mo  Mo9  1  0.02001860  3.16110506  6.33842248  1
  Mo  Mo10  1  1.59555259  4.78496828  7.85172189  1
  Mo  Mo11  1  -0.01253690  6.30678094  0.03255740  1
  Mo  Mo12  1  1.52986339  7.87431616  1.59723231  1
  Mo  Mo13  1  -0.00818486  6.23836961  3.17066521  1
  Mo  Mo14  1  1.60804675  7.94474557  4.77602455  1
  Mo  Mo15  1  0.04438398  6.33079315  6.26325715  1
  Mo  Mo16  1  1.53579866  7.91972407  7.93833509  1
  Mo  Mo17  1  3.15770664  -0.00950371  -0.00094569  1
  Mo  Mo18  1  4.72541328  1.58648360  1.53675231  1
  Mo  Mo19  1  3.16670159  -0.03365517  3.16717464  1
  Mo  Mo20  1  4.76294635  1.56831978  4.69775740  1
  Mo  Mo21  1  3.13367352  0.03879312  6.30352621  1
  Mo  Mo22  1  4.68112526  1.57104040  7.83214647  1
  Mo  Mo23  1  3.17892997  3.25197566  -0.04305968  1
  Mo  Mo24  1  4.73729280  4.70377304  1.56510413  1
  Mo  Mo25  1  3.17659443  3.13936627  3.07924731  1
  Mo  Mo26  1  4.69713231  4.72629157  4.72020560  1
  Mo  Mo27  1  3.16657412  3.19561254  6.16993750  1
  Mo  Mo28  1  4.77638372  4.70633648  7.85547068  1
  Mo  Mo29  1  3.14455256  6.29216189  -0.02248809  1
  Mo  Mo30  1  4.65112730  7.89351069  1.57018014  1
  Mo  Mo31  1  3.21478718  6.24835751  3.08694078  1
  Mo  Mo32  1  4.71110744  7.90656266  4.80588414  1
  Mo  Mo33  1  3.18984404  6.28658954  6.30166507  1
  Mo  Mo34  1  4.69195495  7.83046825  7.89340555  1
  Mo  Mo35  1  6.25541071  0.01389758  0.00629363  1
  Mo  Mo36  1  7.90826911  1.48523726  1.55127526  1
  Mo  Mo37  1  6.31950273  0.02122466  3.19746814  1
  Mo  Mo38  1  7.90150887  1.57490154  4.77172694  1
  Mo  Mo39  1  6.25758902  -0.01538329  6.25992556  1
  Mo  Mo40  1  7.82318126  1.50715702  7.84246404  1
  Mo  Mo41  1  6.31221895  3.22271146  -0.01663922  1
  Mo  Mo42  1  7.85880677  4.71989031  1.62318580  1
  Mo  Mo43  1  6.29999448  3.14520045  3.14256765  1
  Mo  Mo44  1  7.96771757  4.71220462  4.78793442  1
  Mo  Mo45  1  6.24797915  3.15980297  6.20416247  1
  Mo  Mo46  1  7.91967550  4.75171950  7.90595676  1
  Mo  Mo47  1  6.26609373  6.31548540  -0.01150390  1
  Mo  Mo48  1  7.82105298  7.86244223  1.62307799  1
  Mo  Mo49  1  6.20224087  6.27374746  3.17150808  1
  Mo  Mo50  1  7.90816581  7.84171780  4.81637926  1
  Mo  Mo51  1  6.27876126  6.21991190  6.28463172  1
  Mo  Mo52  1  7.92031591  7.86354694  7.87834445  1
