# generated using pymatgen
data_Mo
_symmetry_space_group_name_H-M   'P 1'
_cell_length_a   9.44236900
_cell_length_b   9.44236900
_cell_length_c   9.44236900
_cell_angle_alpha   90.00000000
_cell_angle_beta   90.00000000
_cell_angle_gamma   90.00000000
_symmetry_Int_Tables_number   1
_chemical_formula_structural   Mo
_chemical_formula_sum   Mo53
_cell_volume   841.86587335
_cell_formula_units_Z   53
loop_
 _symmetry_equiv_pos_site_id
 _symmetry_equiv_pos_as_xyz
  1  'x, y, z'
loop_
 _atom_site_type_symbol
 _atom_site_label
 _atom_site_symmetry_multiplicity
 _atom_site_fract_x
 _atom_site_fract_y
 _atom_site_fract_z
 _atom_site_occupancy
  Mo  Mo0  1  1.39627415  0.79088405  0.87566772  1
  Mo  Mo1  1  -0.00444356  -0.01995587  3.17287920  1
  Mo  Mo2  1  1.55848229  1.61323820  4.72193817  1
  Mo  Mo3  1  0.04080670  0.05355624  6.30506579  1
  Mo  Mo4  1  1.59179164  1.62845503  7.94004407  1
  Mo  Mo5  1  -0.00043715  3.13913250  0.00685986  1
  Mo  Mo6  1  1.51150426  4.70353726  1.48029354  1
  Mo  Mo7  1  -0.03448377  3.14787880  3.13751092  1
  Mo  Mo8  1  1.59656732  4.77335832  4.67231950  1
  Mo  Mo9  1  0.02351277  3.20127667  6.30853245  1
  Mo  Mo10  1  1.57481295  4.78093876  7.86086215  1
  Mo  Mo11  1  -0.06556730  6.29074030  0.03093832  1
  Mo  Mo12  1  1.55422018  7.88019920  1.65431659  1
  Mo  Mo13  1  -0.00811043  6.24209797  3.14867086  1
  Mo  Mo14  1  1.60609760  7.97169314  4.75106523  1
  Mo  Mo15  1  0.03403898  6.34179288  6.25644541  1
  Mo  Mo16  1  1.53438161  7.93844576  7.98765030  1
  Mo  Mo17  1  3.14844736  -0.00840508  0.00325598  1
  Mo  Mo18  1  4.71907292  1.52717902  1.53811005  1
  Mo  Mo19  1  3.18152040  0.01677865  3.15517910  1
  Mo  Mo20  1  4.76423146  1.53524941  4.68494332  1
  Mo  Mo21  1  3.15381161  0.01816599  6.28886028  1
  Mo  Mo22  1  4.69964161  1.51673551  7.89296350  1
  Mo  Mo23  1  3.18202480  3.17659095  0.00418188  1
  Mo  Mo24  1  4.72219555  4.66724579  1.53165757  1
  Mo  Mo25  1  3.15425782  3.17385964  3.10886729  1
  Mo  Mo26  1  4.76310872  4.72314161  4.70834250  1
  Mo  Mo27  1  3.16469171  3.19973768  6.20436641  1
  Mo  Mo28  1  4.75196481  4.70099732  7.85012161  1
  Mo  Mo29  1  3.14040897  6.27777264  -0.08338155  1
  Mo  Mo30  1  4.66502089  7.89469649  1.59167452  1
  Mo  Mo31  1  3.15596624  6.26983713  3.14252153  1
  Mo  Mo32  1  4.71890469  7.86263442  4.77427493  1
  Mo  Mo33  1  3.16310024  6.28420540  6.24944852  1
  Mo  Mo34  1  4.68275166  7.85241380  7.97187328  1
  Mo  Mo35  1  6.28996707  0.02377110  -0.03175413  1
  Mo  Mo36  1  7.93128753  1.47985009  1.54174232  1
  Mo  Mo37  1  6.29658740  -0.05019905  3.12283524  1
  Mo  Mo38  1  7.91389135  1.54312961  4.73237113  1
  Mo  Mo39  1  6.25799509  0.00178922  6.26336760  1
  Mo  Mo40  1  7.81223627  1.54716552  7.87147131  1
  Mo  Mo41  1  6.32126475  3.13535162  -0.01306890  1
  Mo  Mo42  1  7.86580761  4.69838578  1.56290508  1
  Mo  Mo43  1  6.29603873  3.14673708  3.12758005  1
  Mo  Mo44  1  7.91431302  4.70292043  4.75604258  1
  Mo  Mo45  1  6.27086494  3.14737260  6.23339137  1
  Mo  Mo46  1  7.90630257  4.72387227  7.98274497  1
  Mo  Mo47  1  6.25006619  6.29047904  -0.02129929  1
  Mo  Mo48  1  7.77345088  7.85528633  1.62697960  1
  Mo  Mo49  1  6.24366326  6.24522843  3.16868017  1
  Mo  Mo50  1  7.94223099  7.91895037  4.76046834  1
  Mo  Mo51  1  6.30757416  6.27900489  6.25841268  1
  Mo  Mo52  1  7.89155850  7.83151265  7.92887175  1
