# generated using pymatgen
data_Mo
_symmetry_space_group_name_H-M   'P 1'
_cell_length_a   9.44236900
_cell_length_b   9.44236900
_cell_length_c   9.44236900
_cell_angle_alpha   90.00000000
_cell_angle_beta   90.00000000
_cell_angle_gamma   90.00000000
_symmetry_Int_Tables_number   1
_chemical_formula_structural   Mo
_chemical_formula_sum   Mo53
_cell_volume   841.86587335
_cell_formula_units_Z   53
loop_
 _symmetry_equiv_pos_site_id
 _symmetry_equiv_pos_as_xyz
  1  'x, y, z'
loop_
 _atom_site_type_symbol
 _atom_site_label
 _atom_site_symmetry_multiplicity
 _atom_site_fract_x
 _atom_site_fract_y
 _atom_site_fract_z
 _atom_site_occupancy
  Mo  Mo0  1  0.87416955  0.98174531  0.80514789  1
  Mo  Mo1  1  0.00557487  -0.01820714  3.21524896  1
  Mo  Mo2  1  1.56071885  1.63691163  4.71672540  1
  Mo  Mo3  1  0.05723603  0.06989443  6.30835794  1
  Mo  Mo4  1  1.57646739  1.63956118  7.91781279  1
  Mo  Mo5  1  0.00955470  3.14427146  0.00822490  1
  Mo  Mo6  1  1.51431312  4.71617126  1.48289584  1
  Mo  Mo7  1  -0.01521449  3.15649115  3.11927731  1
  Mo  Mo8  1  1.59504493  4.78084093  4.69352798  1
  Mo  Mo9  1  0.02055503  3.22115018  6.29122396  1
  Mo  Mo10  1  1.56253383  4.76278275  7.86997553  1
  Mo  Mo11  1  -0.07014903  6.30766530  0.01538631  1
  Mo  Mo12  1  1.56789906  7.88800834  1.65524967  1
  Mo  Mo13  1  -0.01148502  6.25825188  3.13066468  1
  Mo  Mo14  1  1.59838692  7.96815704  4.73970439  1
  Mo  Mo15  1  0.02233973  6.34313250  6.26061199  1
  Mo  Mo16  1  1.53109957  7.93945795  8.00374587  1
  Mo  Mo17  1  3.11235586  -0.00060122  0.02098161  1
  Mo  Mo18  1  4.72289250  1.51128569  1.53686688  1
  Mo  Mo19  1  3.17889155  0.03839211  3.15427939  1
  Mo  Mo20  1  4.73998919  1.52510467  4.68121956  1
  Mo  Mo21  1  3.16116012  0.00945021  6.29079174  1
  Mo  Mo22  1  4.71458404  1.49900335  7.91298225  1
  Mo  Mo23  1  3.17886454  3.11738108  0.01085236  1
  Mo  Mo24  1  4.71286719  4.67323741  1.52027703  1
  Mo  Mo25  1  3.14000988  3.17864081  3.12893532  1
  Mo  Mo26  1  4.78936609  4.71521553  4.69241229  1
  Mo  Mo27  1  3.15967458  3.18816984  6.24856449  1
  Mo  Mo28  1  4.73175224  4.69947983  7.85197432  1
  Mo  Mo29  1  3.12615254  6.27238628  -0.09081054  1
  Mo  Mo30  1  4.69201391  7.89563270  1.60796850  1
  Mo  Mo31  1  3.11350915  6.28801198  3.16433802  1
  Mo  Mo32  1  4.73174480  7.84471281  4.74505276  1
  Mo  Mo33  1  3.14380140  6.29095781  6.22639448  1
  Mo  Mo34  1  4.68809259  7.86786175  7.98981504  1
  Mo  Mo35  1  6.32733955  0.01189939  -0.04580412  1
  Mo  Mo36  1  7.93165597  1.48929120  1.53389528  1
  Mo  Mo37  1  6.28261021  -0.07238718  3.08837896  1
  Mo  Mo38  1  7.90661883  1.52252942  4.70147056  1
  Mo  Mo39  1  6.27430252  0.00390626  6.26841457  1
  Mo  Mo40  1  7.82955456  1.57421150  7.89113837  1
  Mo  Mo41  1  6.32322872  3.09367059  -0.00944698  1
  Mo  Mo42  1  7.86397988  4.68351604  1.54791640  1
  Mo  Mo43  1  6.29955035  3.14128913  3.12318493  1
  Mo  Mo44  1  7.87038599  4.70534294  4.73496028  1
  Mo  Mo45  1  6.30347626  3.13523381  6.27130918  1
  Mo  Mo46  1  7.89267467  4.70342825  7.98954850  1
  Mo  Mo47  1  6.24810620  6.27874943  -0.02160299  1
  Mo  Mo48  1  7.77689754  7.86039810  1.62190703  1
  Mo  Mo49  1  6.28649603  6.24049135  3.16018081  1
  Mo  Mo50  1  7.94460939  7.93835203  4.72955171  1
  Mo  Mo51  1  6.32691394  6.31575107  6.25530590  1
  Mo  Mo52  1  7.86979398  7.83112345  7.95418191  1
