# generated using pymatgen
data_Mo
_symmetry_space_group_name_H-M   'P 1'
_cell_length_a   9.44236900
_cell_length_b   9.44236900
_cell_length_c   9.44236900
_cell_angle_alpha   90.00000000
_cell_angle_beta   90.00000000
_cell_angle_gamma   90.00000000
_symmetry_Int_Tables_number   1
_chemical_formula_structural   Mo
_chemical_formula_sum   Mo53
_cell_volume   841.86587335
_cell_formula_units_Z   53
loop_
 _symmetry_equiv_pos_site_id
 _symmetry_equiv_pos_as_xyz
  1  'x, y, z'
loop_
 _atom_site_type_symbol
 _atom_site_label
 _atom_site_symmetry_multiplicity
 _atom_site_fract_x
 _atom_site_fract_y
 _atom_site_fract_z
 _atom_site_occupancy
  Mo  Mo0  1  1.35916698  1.05442537  0.94227223  1
  Mo  Mo1  1  0.01680814  -0.01027647  3.22296461  1
  Mo  Mo2  1  1.56599938  1.65908193  4.71149541  1
  Mo  Mo3  1  0.06230946  0.08040341  6.32496458  1
  Mo  Mo4  1  1.55967800  1.63404941  7.88772062  1
  Mo  Mo5  1  0.01941267  3.13580762  0.00330256  1
  Mo  Mo6  1  1.53160933  4.73188235  1.49855463  1
  Mo  Mo7  1  0.00349269  3.15906811  3.11553140  1
  Mo  Mo8  1  1.58064820  4.77835254  4.71456006  1
  Mo  Mo9  1  0.01559060  3.23603106  6.27178223  1
  Mo  Mo10  1  1.54862341  4.74181891  7.87903419  1
  Mo  Mo11  1  -0.05597430  6.33589457  -0.00385556  1
  Mo  Mo12  1  1.57969543  7.89756217  1.63835021  1
  Mo  Mo13  1  -0.01849690  6.27915913  3.11782980  1
  Mo  Mo14  1  1.59120863  7.95426100  4.73792391  1
  Mo  Mo15  1  0.00573105  6.34610906  6.26527611  1
  Mo  Mo16  1  1.52437632  7.93394392  8.00559414  1
  Mo  Mo17  1  3.06808455  0.00495684  0.04196858  1
  Mo  Mo18  1  4.73138949  1.51076428  1.53381322  1
  Mo  Mo19  1  3.16341302  0.04717035  3.16313023  1
  Mo  Mo20  1  4.71218279  1.52614306  4.68359654  1
  Mo  Mo21  1  3.16628598  0.00280080  6.29925108  1
  Mo  Mo22  1  4.72579340  1.49340755  7.91847386  1
  Mo  Mo23  1  3.17276004  3.06540156  0.00483685  1
  Mo  Mo24  1  4.70490229  4.69044664  1.51911851  1
  Mo  Mo25  1  3.13040589  3.17703318  3.15047942  1
  Mo  Mo26  1  4.79970240  4.70280065  4.68048370  1
  Mo  Mo27  1  3.16006294  3.17067691  6.29300301  1
  Mo  Mo28  1  4.71125607  4.69783518  7.85884957  1
  Mo  Mo29  1  3.10846069  6.26953607  -0.07885788  1
  Mo  Mo30  1  4.72133197  7.89021248  1.61677032  1
  Mo  Mo31  1  3.08280173  6.30444869  3.17255679  1
  Mo  Mo32  1  4.74836776  7.83758586  4.71635477  1
  Mo  Mo33  1  3.13158965  6.30205497  6.21721914  1
  Mo  Mo34  1  4.69540257  7.87803348  7.98695117  1
  Mo  Mo35  1  6.36633860  -0.01053285  -0.04779092  1
  Mo  Mo36  1  7.92922642  1.50177251  1.52752999  1
  Mo  Mo37  1  6.26957710  -0.07455965  3.07034531  1
  Mo  Mo38  1  7.88667568  1.51236413  4.67188636  1
  Mo  Mo39  1  6.29937128  0.00113300  6.26776464  1
  Mo  Mo40  1  7.86272870  1.59669807  7.90580497  1
  Mo  Mo41  1  6.32067744  3.06921403  -0.00368179  1
  Mo  Mo42  1  7.86018858  4.67015153  1.54765119  1
  Mo  Mo43  1  6.30332697  3.12674573  3.12453535  1
  Mo  Mo44  1  7.83623010  4.70983434  4.71490142  1
  Mo  Mo45  1  6.33730469  3.12376548  6.30754497  1
  Mo  Mo46  1  7.86957972  4.68829147  7.97212234  1
  Mo  Mo47  1  6.24710033  6.27008918  -0.02111187  1
  Mo  Mo48  1  7.80668163  7.86918061  1.60908590  1
  Mo  Mo49  1  6.32693896  6.24193084  3.14597408  1
  Mo  Mo50  1  7.93562935  7.93122746  4.71046153  1
  Mo  Mo51  1  6.34101563  6.34460007  6.26111368  1
  Mo  Mo52  1  7.84915889  7.84203136  7.97047088  1
