# generated using pymatgen
data_Mo
_symmetry_space_group_name_H-M   'P 1'
_cell_length_a   9.44236900
_cell_length_b   9.44236900
_cell_length_c   9.44236900
_cell_angle_alpha   90.00000000
_cell_angle_beta   90.00000000
_cell_angle_gamma   90.00000000
_symmetry_Int_Tables_number   1
_chemical_formula_structural   Mo
_chemical_formula_sum   Mo53
_cell_volume   841.86587335
_cell_formula_units_Z   53
loop_
 _symmetry_equiv_pos_site_id
 _symmetry_equiv_pos_as_xyz
  1  'x, y, z'
loop_
 _atom_site_type_symbol
 _atom_site_label
 _atom_site_symmetry_multiplicity
 _atom_site_fract_x
 _atom_site_fract_y
 _atom_site_fract_z
 _atom_site_occupancy
  Mo  Mo0  1  0.99076563  1.24624526  1.04313836  1
  Mo  Mo1  1  0.02117083  0.01615070  3.15372209  1
  Mo  Mo2  1  1.56717054  1.67340414  4.70987389  1
  Mo  Mo3  1  0.03836198  0.06734083  6.35337510  1
  Mo  Mo4  1  1.53375725  1.57951655  7.82644346  1
  Mo  Mo5  1  0.03380713  3.10393600  -0.00850860  1
  Mo  Mo6  1  1.58758188  4.75594855  1.54016561  1
  Mo  Mo7  1  0.01535992  3.15789907  3.15246356  1
  Mo  Mo8  1  1.52968436  4.76032478  4.73432953  1
  Mo  Mo9  1  0.00464289  3.23706165  6.23719366  1
  Mo  Mo10  1  1.51573773  4.71880604  7.88611983  1
  Mo  Mo11  1  -0.00269946  6.37446789  -0.02743591  1
  Mo  Mo12  1  1.59336644  7.90889011  1.57941885  1
  Mo  Mo13  1  -0.03538681  6.31602674  3.12385496  1
  Mo  Mo14  1  1.58197049  7.91514159  4.76481015  1
  Mo  Mo15  1  -0.02718084  6.35324686  6.27176203  1
  Mo  Mo16  1  1.50743697  7.91556515  7.95276789  1
  Mo  Mo17  1  3.01846873  -0.00812325  0.05984595  1
  Mo  Mo18  1  4.75014784  1.54144313  1.52436348  1
  Mo  Mo19  1  3.10785024  0.01838684  3.20949354  1
  Mo  Mo20  1  4.68213947  1.55665353  4.71126016  1
  Mo  Mo21  1  3.17683186  -0.00826200  6.32823550  1
  Mo  Mo22  1  4.73259454  1.50211100  7.89301979  1
  Mo  Mo23  1  3.15619225  3.03403961  -0.01732517  1
  Mo  Mo24  1  4.69978572  4.72686890  1.54429912  1
  Mo  Mo25  1  3.13756431  3.16737600  3.18770631  1
  Mo  Mo26  1  4.76489522  4.68201831  4.68855711  1
  Mo  Mo27  1  3.17936815  3.13641915  6.33695530  1
  Mo  Mo28  1  4.67797900  4.69821722  7.88887696  1
  Mo  Mo29  1  3.08775846  6.27207441  -0.01929508  1
  Mo  Mo30  1  4.75693171  7.86655273  1.58888970  1
  Mo  Mo31  1  3.09078864  6.31692090  3.15871389  1
  Mo  Mo32  1  4.77514081  7.85608009  4.68362488  1
  Mo  Mo33  1  3.14309288  6.32332813  6.24748292  1
  Mo  Mo34  1  4.69986889  7.87343448  7.93831448  1
  Mo  Mo35  1  6.39894938  -0.04516845  -0.01558560  1
  Mo  Mo36  1  7.93121336  1.52619572  1.52289367  1
  Mo  Mo37  1  6.25957373  -0.02526257  3.09683942  1
  Mo  Mo38  1  7.83164267  1.53044774  4.63688833  1
  Mo  Mo39  1  6.35355354  -0.00359409  6.25045764  1
  Mo  Mo40  1  7.93651276  1.60099728  7.90798407  1
  Mo  Mo41  1  6.30755760  3.08837142  0.01428258  1
  Mo  Mo42  1  7.87455381  4.66157998  1.56556268  1
  Mo  Mo43  1  6.29585834  3.08562635  3.14609902  1
  Mo  Mo44  1  7.83363595  4.71028654  4.68831210  1
  Mo  Mo45  1  6.36631828  3.11540286  6.33509023  1
  Mo  Mo46  1  7.81250587  4.69626448  7.90942629  1
  Mo  Mo47  1  6.25129033  6.26554628  -0.02277238  1
  Mo  Mo48  1  7.92687742  7.88794490  1.56827967  1
  Mo  Mo49  1  6.34871807  6.26181156  3.11260220  1
  Mo  Mo50  1  7.90432334  7.86077543  4.71055552  1
  Mo  Mo51  1  6.32886352  6.35429180  6.28660955  1
  Mo  Mo52  1  7.83503849  7.87410543  7.95712672  1
