# generated using pymatgen
data_Mo
_symmetry_space_group_name_H-M   'P 1'
_cell_length_a   9.52000000
_cell_length_b   9.52000000
_cell_length_c   9.52000000
_cell_angle_alpha   90.00000000
_cell_angle_beta   90.00000000
_cell_angle_gamma   90.00000000
_symmetry_Int_Tables_number   1
_chemical_formula_structural   Mo
_chemical_formula_sum   Mo54
_cell_volume   862.80140800
_cell_formula_units_Z   54
loop_
 _symmetry_equiv_pos_site_id
 _symmetry_equiv_pos_as_xyz
  1  'x, y, z'
loop_
 _atom_site_type_symbol
 _atom_site_label
 _atom_site_symmetry_multiplicity
 _atom_site_fract_x
 _atom_site_fract_y
 _atom_site_fract_z
 _atom_site_occupancy
  Mo  Mo0  1  -0.10864900  0.03287290  -0.08277800  1
  Mo  Mo1  1  1.85417000  1.72434000  1.60000000  1
  Mo  Mo2  1  0.02847960  0.09364570  3.18863000  1
  Mo  Mo3  1  -0.14941900  3.16656000  -0.08728030  1
  Mo  Mo4  1  0.12416900  3.11186000  3.28463000  1
  Mo  Mo5  1  2.97705000  -0.03600420  -0.02017300  1
  Mo  Mo6  1  3.30333000  -0.04303280  3.17619000  1
  Mo  Mo7  1  3.15071000  3.20126000  -0.00880748  1
  Mo  Mo8  1  3.11076000  3.28929000  3.23360000  1
  Mo  Mo9  1  1.58880000  1.72605000  4.64505000  1
  Mo  Mo10  1  -0.36069200  0.03621590  6.38846000  1
  Mo  Mo11  1  1.56637000  1.53830000  7.97871000  1
  Mo  Mo12  1  -0.17528000  3.20917000  6.39478000  1
  Mo  Mo13  1  2.97171000  0.07933570  6.34660000  1
  Mo  Mo14  1  3.08911000  3.21678000  6.32675000  1
  Mo  Mo15  1  1.83454000  4.89604000  1.73742000  1
  Mo  Mo16  1  0.20455900  6.62623000  0.12332200  1
  Mo  Mo17  1  1.62019000  7.92266000  1.73005000  1
  Mo  Mo18  1  0.00574827  6.34230000  3.17080000  1
  Mo  Mo19  1  3.18635000  6.39208000  0.07549050  1
  Mo  Mo20  1  3.40902000  6.43537000  3.12986000  1
  Mo  Mo21  1  1.48579000  4.81946000  4.85771000  1
  Mo  Mo22  1  1.61116000  4.79472000  8.03471000  1
  Mo  Mo23  1  1.49023000  8.02499000  4.65478000  1
  Mo  Mo24  1  -0.07564370  6.20502000  6.10053000  1
  Mo  Mo25  1  1.50373000  8.10862000  7.97050000  1
  Mo  Mo26  1  3.29971000  6.20057000  6.30911000  1
  Mo  Mo27  1  4.70351000  1.40295000  1.47082000  1
  Mo  Mo28  1  6.50791000  -0.10976900  0.06827910  1
  Mo  Mo29  1  8.01885000  1.73485000  1.76919000  1
  Mo  Mo30  1  6.16493000  -0.00694244  2.99771000  1
  Mo  Mo31  1  6.52044000  3.32223000  0.08667850  1
  Mo  Mo32  1  6.31700000  3.21875000  3.05473000  1
  Mo  Mo33  1  4.86074000  1.54850000  4.62767000  1
  Mo  Mo34  1  4.70208000  1.66727000  7.84639000  1
  Mo  Mo35  1  7.81145000  1.44601000  4.56190000  1
  Mo  Mo36  1  6.33018000  -0.01595290  6.53653000  1
  Mo  Mo37  1  7.82805000  1.45466000  7.84622000  1
  Mo  Mo38  1  6.37716000  3.23350000  6.31434000  1
  Mo  Mo39  1  4.92402000  4.81614000  1.51239000  1
  Mo  Mo40  1  4.78083000  7.79287000  1.74698000  1
  Mo  Mo41  1  8.12319000  4.88928000  1.80959000  1
  Mo  Mo42  1  6.48606000  6.23415000  0.08649950  1
  Mo  Mo43  1  8.03235000  7.73634000  1.57924000  1
  Mo  Mo44  1  6.42198000  6.25546000  3.32746000  1
  Mo  Mo45  1  4.76891000  4.67789000  4.71167000  1
  Mo  Mo46  1  4.67781000  4.54083000  7.93502000  1
  Mo  Mo47  1  4.83889000  7.96695000  4.96268000  1
  Mo  Mo48  1  4.80120000  8.03688000  7.93498000  1
  Mo  Mo49  1  8.02652000  4.59742000  4.78184000  1
  Mo  Mo50  1  8.04908000  4.82409000  7.82780000  1
  Mo  Mo51  1  7.70088000  7.95148000  4.85463000  1
  Mo  Mo52  1  6.38108000  6.39864000  6.27101000  1
  Mo  Mo53  1  7.94889000  7.92083000  7.86910000  1
