# generated using pymatgen
data_Mo
_symmetry_space_group_name_H-M   'P 1'
_cell_length_a   9.52000000
_cell_length_b   9.52000000
_cell_length_c   9.52000000
_cell_angle_alpha   90.00000000
_cell_angle_beta   90.00000000
_cell_angle_gamma   90.00000000
_symmetry_Int_Tables_number   1
_chemical_formula_structural   Mo
_chemical_formula_sum   Mo54
_cell_volume   862.80140800
_cell_formula_units_Z   54
loop_
 _symmetry_equiv_pos_site_id
 _symmetry_equiv_pos_as_xyz
  1  'x, y, z'
loop_
 _atom_site_type_symbol
 _atom_site_label
 _atom_site_symmetry_multiplicity
 _atom_site_fract_x
 _atom_site_fract_y
 _atom_site_fract_z
 _atom_site_occupancy
  Mo  Mo0  1  0.13445200  -0.11446700  -0.07968270  1
  Mo  Mo1  1  1.51359000  1.68605000  1.43596000  1
  Mo  Mo2  1  -0.19008500  0.01684130  3.28783000  1
  Mo  Mo3  1  -0.12087000  3.05771000  0.03806420  1
  Mo  Mo4  1  0.11108600  3.31074000  3.30514000  1
  Mo  Mo5  1  2.98497000  0.01095030  0.13882700  1
  Mo  Mo6  1  2.73607000  -0.07694410  3.28139000  1
  Mo  Mo7  1  3.27827000  3.14045000  -0.10644100  1
  Mo  Mo8  1  3.38102000  3.08890000  2.92270000  1
  Mo  Mo9  1  1.70072000  1.76766000  4.74756000  1
  Mo  Mo10  1  0.07495740  -0.00196817  6.43727000  1
  Mo  Mo11  1  1.73892000  1.66240000  7.94894000  1
  Mo  Mo12  1  -0.15320700  3.24244000  6.39811000  1
  Mo  Mo13  1  3.05852000  0.09470400  6.40500000  1
  Mo  Mo14  1  3.16843000  3.12499000  6.29262000  1
  Mo  Mo15  1  1.52735000  4.64345000  1.63867000  1
  Mo  Mo16  1  -0.07358310  6.31573000  -0.13762500  1
  Mo  Mo17  1  1.39226000  7.93267000  1.48950000  1
  Mo  Mo18  1  -0.07691120  6.20093000  3.27334000  1
  Mo  Mo19  1  3.21358000  6.31305000  0.22433300  1
  Mo  Mo20  1  2.93377000  6.25275000  3.12913000  1
  Mo  Mo21  1  1.81504000  4.69270000  4.96604000  1
  Mo  Mo22  1  1.63699000  4.58883000  8.16604000  1
  Mo  Mo23  1  1.59267000  7.88772000  4.77621000  1
  Mo  Mo24  1  0.10325400  6.34028000  6.38147000  1
  Mo  Mo25  1  1.66085000  7.84671000  7.79598000  1
  Mo  Mo26  1  3.31414000  6.41998000  6.41618000  1
  Mo  Mo27  1  4.80171000  1.45704000  1.48480000  1
  Mo  Mo28  1  6.34630000  -0.05177930  -0.00781666  1
  Mo  Mo29  1  8.06407000  1.57590000  1.68016000  1
  Mo  Mo30  1  6.31777000  -0.04340170  3.08820000  1
  Mo  Mo31  1  6.41024000  3.29540000  0.07509110  1
  Mo  Mo32  1  6.40933000  3.02626000  3.16085000  1
  Mo  Mo33  1  4.68756000  1.48107000  4.64981000  1
  Mo  Mo34  1  4.89965000  1.54186000  7.84241000  1
  Mo  Mo35  1  7.99945000  1.75026000  4.80834000  1
  Mo  Mo36  1  6.58540000  0.08557690  6.41554000  1
  Mo  Mo37  1  7.96247000  1.66601000  8.09966000  1
  Mo  Mo38  1  6.30911000  3.35690000  6.33144000  1
  Mo  Mo39  1  4.92358000  4.68478000  1.63249000  1
  Mo  Mo40  1  4.74622000  8.06332000  1.47864000  1
  Mo  Mo41  1  8.02404000  4.85572000  1.66133000  1
  Mo  Mo42  1  6.23236000  6.40703000  0.27851400  1
  Mo  Mo43  1  7.90062000  8.01617000  1.56308000  1
  Mo  Mo44  1  6.32876000  6.30210000  3.01764000  1
  Mo  Mo45  1  4.81154000  4.98105000  4.67770000  1
  Mo  Mo46  1  4.65021000  4.70498000  7.97846000  1
  Mo  Mo47  1  4.69239000  7.91745000  4.68483000  1
  Mo  Mo48  1  4.73484000  8.10546000  7.86945000  1
  Mo  Mo49  1  8.01854000  4.78983000  4.70864000  1
  Mo  Mo50  1  7.79762000  4.74786000  7.91294000  1
  Mo  Mo51  1  7.89258000  8.00663000  4.66871000  1
  Mo  Mo52  1  6.48777000  6.51468000  6.51784000  1
  Mo  Mo53  1  8.15965000  7.96658000  7.79868000  1
