# generated using pymatgen
data_Mo
_symmetry_space_group_name_H-M   'P 1'
_cell_length_a   9.64000000
_cell_length_b   9.64000000
_cell_length_c   9.64000000
_cell_angle_alpha   90.00000000
_cell_angle_beta   90.00000000
_cell_angle_gamma   90.00000000
_symmetry_Int_Tables_number   1
_chemical_formula_structural   Mo
_chemical_formula_sum   Mo54
_cell_volume   895.84134400
_cell_formula_units_Z   54
loop_
 _symmetry_equiv_pos_site_id
 _symmetry_equiv_pos_as_xyz
  1  'x, y, z'
loop_
 _atom_site_type_symbol
 _atom_site_label
 _atom_site_symmetry_multiplicity
 _atom_site_fract_x
 _atom_site_fract_y
 _atom_site_fract_z
 _atom_site_occupancy
  Mo  Mo0  1  -0.03946620  0.32431800  0.04077240  1
  Mo  Mo1  1  1.54764000  1.65380000  1.48914000  1
  Mo  Mo2  1  -0.11290000  0.08288310  3.13553000  1
  Mo  Mo3  1  1.67510000  1.76933000  4.72766000  1
  Mo  Mo4  1  -0.16011900  3.13929000  -0.04554600  1
  Mo  Mo5  1  1.53909000  4.80277000  1.65830000  1
  Mo  Mo6  1  0.06327710  3.24994000  3.17484000  1
  Mo  Mo7  1  1.65527000  4.83299000  4.64599000  1
  Mo  Mo8  1  3.12439000  -0.11066900  0.05027700  1
  Mo  Mo9  1  4.63610000  1.57396000  1.64223000  1
  Mo  Mo10  1  3.15875000  0.02902400  3.03070000  1
  Mo  Mo11  1  5.01355000  1.54934000  4.97946000  1
  Mo  Mo12  1  3.09391000  3.21137000  0.13107000  1
  Mo  Mo13  1  4.98780000  4.76536000  1.72125000  1
  Mo  Mo14  1  3.25720000  2.95100000  3.26448000  1
  Mo  Mo15  1  4.81593000  4.79462000  4.87701000  1
  Mo  Mo16  1  -0.17974100  -0.00562747  6.34346000  1
  Mo  Mo17  1  1.77175000  1.69882000  8.15436000  1
  Mo  Mo18  1  0.08389830  3.04928000  6.56070000  1
  Mo  Mo19  1  1.31652000  4.95160000  7.73141000  1
  Mo  Mo20  1  3.14597000  -0.16050000  6.55882000  1
  Mo  Mo21  1  4.84275000  1.45320000  7.77901000  1
  Mo  Mo22  1  3.28820000  3.07265000  6.44980000  1
  Mo  Mo23  1  4.83486000  4.72656000  8.26051000  1
  Mo  Mo24  1  -0.34400500  6.45090000  -0.27903500  1
  Mo  Mo25  1  1.47625000  7.93172000  1.54543000  1
  Mo  Mo26  1  -0.10297500  6.41584000  2.89484000  1
  Mo  Mo27  1  1.67977000  8.20661000  4.58461000  1
  Mo  Mo28  1  3.04026000  6.44194000  -0.04785920  1
  Mo  Mo29  1  4.60072000  7.80102000  1.64456000  1
  Mo  Mo30  1  3.12739000  6.47376000  3.26525000  1
  Mo  Mo31  1  4.88611000  7.83526000  4.62389000  1
  Mo  Mo32  1  -0.14747100  6.48609000  6.32503000  1
  Mo  Mo33  1  1.42409000  8.16765000  8.15941000  1
  Mo  Mo34  1  3.23315000  6.38466000  6.45680000  1
  Mo  Mo35  1  4.69597000  7.90795000  7.90666000  1
  Mo  Mo36  1  6.31193000  -0.18783000  -0.17679100  1
  Mo  Mo37  1  7.90301000  1.57472000  1.63769000  1
  Mo  Mo38  1  6.46870000  -0.07081950  3.10398000  1
  Mo  Mo39  1  8.15245000  1.65400000  4.70985000  1
  Mo  Mo40  1  6.50382000  3.17574000  0.12001700  1
  Mo  Mo41  1  7.93837000  4.69538000  1.45552000  1
  Mo  Mo42  1  6.45335000  3.06586000  3.24984000  1
  Mo  Mo43  1  8.06432000  4.64747000  4.71103000  1
  Mo  Mo44  1  6.35189000  -0.12747300  6.30489000  1
  Mo  Mo45  1  7.98905000  1.68666000  7.87406000  1
  Mo  Mo46  1  6.67723000  3.01955000  6.31345000  1
  Mo  Mo47  1  7.90643000  4.80344000  7.85255000  1
  Mo  Mo48  1  6.26961000  6.22720000  0.07684890  1
  Mo  Mo49  1  8.04063000  8.05784000  1.50434000  1
  Mo  Mo50  1  6.46935000  6.25618000  3.22800000  1
  Mo  Mo51  1  7.94532000  7.96549000  4.84017000  1
  Mo  Mo52  1  6.34141000  6.25229000  6.42979000  1
  Mo  Mo53  1  7.93412000  8.04561000  7.97396000  1
