# generated using pymatgen
data_Mo
_symmetry_space_group_name_H-M   'P 1'
_cell_length_a   9.64000000
_cell_length_b   9.64000000
_cell_length_c   9.64000000
_cell_angle_alpha   90.00000000
_cell_angle_beta   90.00000000
_cell_angle_gamma   90.00000000
_symmetry_Int_Tables_number   1
_chemical_formula_structural   Mo
_chemical_formula_sum   Mo54
_cell_volume   895.84134400
_cell_formula_units_Z   54
loop_
 _symmetry_equiv_pos_site_id
 _symmetry_equiv_pos_as_xyz
  1  'x, y, z'
loop_
 _atom_site_type_symbol
 _atom_site_label
 _atom_site_symmetry_multiplicity
 _atom_site_fract_x
 _atom_site_fract_y
 _atom_site_fract_z
 _atom_site_occupancy
  Mo  Mo0  1  -0.19835900  -0.06934340  -0.30335700  1
  Mo  Mo1  1  1.59898000  1.42785000  1.74938000  1
  Mo  Mo2  1  -0.26100300  -0.03171620  3.43692000  1
  Mo  Mo3  1  1.44708000  1.66699000  4.93255000  1
  Mo  Mo4  1  0.11779600  3.36668000  -0.33340400  1
  Mo  Mo5  1  1.06447000  5.32926000  1.69022000  1
  Mo  Mo6  1  -0.02241960  2.92128000  3.00084000  1
  Mo  Mo7  1  1.66385000  4.76647000  4.29979000  1
  Mo  Mo8  1  3.30388000  -0.25721000  -0.04973190  1
  Mo  Mo9  1  4.75656000  1.41642000  1.53944000  1
  Mo  Mo10  1  2.96906000  -0.02961780  3.00203000  1
  Mo  Mo11  1  4.58476000  1.74659000  4.66374000  1
  Mo  Mo12  1  3.39561000  3.04083000  0.26367900  1
  Mo  Mo13  1  4.81798000  4.72144000  1.34762000  1
  Mo  Mo14  1  2.91120000  3.24647000  2.97501000  1
  Mo  Mo15  1  4.66688000  4.82282000  4.61240000  1
  Mo  Mo16  1  0.23026200  0.20650800  6.73390000  1
  Mo  Mo17  1  1.72647000  1.69706000  8.25742000  1
  Mo  Mo18  1  0.18748500  2.99489000  6.37789000  1
  Mo  Mo19  1  1.60452000  4.53252000  8.12807000  1
  Mo  Mo20  1  2.93923000  0.00201207  6.20706000  1
  Mo  Mo21  1  4.46998000  1.59193000  8.00195000  1
  Mo  Mo22  1  3.30829000  3.19181000  6.35880000  1
  Mo  Mo23  1  5.04005000  4.62872000  7.93723000  1
  Mo  Mo24  1  0.10556100  6.39695000  -0.30904900  1
  Mo  Mo25  1  1.46821000  8.06692000  1.52817000  1
  Mo  Mo26  1  -0.18003700  6.86211000  3.17156000  1
  Mo  Mo27  1  1.52997000  7.83818000  4.96137000  1
  Mo  Mo28  1  3.00381000  6.42399000  0.22238200  1
  Mo  Mo29  1  4.67375000  7.93081000  1.40712000  1
  Mo  Mo30  1  3.14527000  6.49794000  2.99424000  1
  Mo  Mo31  1  4.75887000  8.13083000  4.84243000  1
  Mo  Mo32  1  0.31585600  6.22068000  6.32003000  1
  Mo  Mo33  1  1.69814000  7.90194000  7.85502000  1
  Mo  Mo34  1  3.39004000  6.30592000  6.22100000  1
  Mo  Mo35  1  4.72170000  8.21425000  8.10919000  1
  Mo  Mo36  1  6.41930000  0.24609500  -0.08413790  1
  Mo  Mo37  1  7.66346000  1.36182000  1.60719000  1
  Mo  Mo38  1  6.09293000  -0.17752800  3.41315000  1
  Mo  Mo39  1  7.95611000  1.57479000  4.95448000  1
  Mo  Mo40  1  6.41465000  3.08317000  -0.02829090  1
  Mo  Mo41  1  8.19748000  4.50692000  1.90042000  1
  Mo  Mo42  1  6.39313000  2.78334000  3.22417000  1
  Mo  Mo43  1  8.23162000  4.62560000  4.99728000  1
  Mo  Mo44  1  6.04927000  0.11929400  6.29219000  1
  Mo  Mo45  1  8.16968000  1.48492000  8.15028000  1
  Mo  Mo46  1  6.37622000  3.07156000  6.41188000  1
  Mo  Mo47  1  8.06914000  4.56472000  8.12565000  1
  Mo  Mo48  1  6.52828000  6.52205000  -0.23091200  1
  Mo  Mo49  1  8.08338000  8.30493000  1.62232000  1
  Mo  Mo50  1  6.63796000  5.92237000  3.33745000  1
  Mo  Mo51  1  7.83708000  8.43230000  4.78533000  1
  Mo  Mo52  1  6.53327000  6.45441000  6.49584000  1
  Mo  Mo53  1  8.04329000  8.04809000  7.52280000  1
