# generated using pymatgen
data_Mo
_symmetry_space_group_name_H-M   'P 1'
_cell_length_a   9.64000000
_cell_length_b   9.64000000
_cell_length_c   9.64000000
_cell_angle_alpha   90.00000000
_cell_angle_beta   90.00000000
_cell_angle_gamma   90.00000000
_symmetry_Int_Tables_number   1
_chemical_formula_structural   Mo
_chemical_formula_sum   Mo54
_cell_volume   895.84134400
_cell_formula_units_Z   54
loop_
 _symmetry_equiv_pos_site_id
 _symmetry_equiv_pos_as_xyz
  1  'x, y, z'
loop_
 _atom_site_type_symbol
 _atom_site_label
 _atom_site_symmetry_multiplicity
 _atom_site_fract_x
 _atom_site_fract_y
 _atom_site_fract_z
 _atom_site_occupancy
  Mo  Mo0  1  3.00968000  2.94035000  3.32621000  1
  Mo  Mo1  1  1.51130000  1.59944000  1.82503000  1
  Mo  Mo2  1  2.95435000  -0.21135600  3.16078000  1
  Mo  Mo3  1  4.78673000  1.80319000  1.29449000  1
  Mo  Mo4  1  1.24290000  1.42404000  4.98553000  1
  Mo  Mo5  1  0.12010600  -0.09259020  3.01657000  1
  Mo  Mo6  1  1.83077000  4.30416000  4.89810000  1
  Mo  Mo7  1  3.01145000  3.17245000  -0.07394070  1
  Mo  Mo8  1  4.63103000  4.83565000  4.99505000  1
  Mo  Mo9  1  0.07118710  3.02765000  0.20284000  1
  Mo  Mo10  1  3.06027000  2.98391000  6.53856000  1
  Mo  Mo11  1  1.59575000  1.45711000  8.14140000  1
  Mo  Mo12  1  4.67766000  4.88622000  7.92724000  1
  Mo  Mo13  1  -0.06291000  2.97735000  6.64789000  1
  Mo  Mo14  1  3.16379000  0.15075900  9.56299000  1
  Mo  Mo15  1  2.98164000  6.55467000  3.05015000  1
  Mo  Mo16  1  1.36053000  8.03379000  1.57387000  1
  Mo  Mo17  1  4.74229000  7.92617000  1.60350000  1
  Mo  Mo18  1  1.57393000  4.48408000  1.79083000  1
  Mo  Mo19  1  3.22568000  6.50488000  -0.18688500  1
  Mo  Mo20  1  1.44413000  8.03964000  4.80675000  1
  Mo  Mo21  1  5.13602000  8.03788000  4.74968000  1
  Mo  Mo22  1  1.61251000  4.65357000  8.26036000  1
  Mo  Mo23  1  1.58596000  7.92580000  8.10337000  1
  Mo  Mo24  1  3.49121000  6.81250000  6.69957000  1
  Mo  Mo25  1  5.12864000  8.02521000  7.91526000  1
  Mo  Mo26  1  3.16005000  9.59603000  6.44311000  1
  Mo  Mo27  1  0.35611500  5.96305000  6.22587000  1
  Mo  Mo28  1  6.37016000  3.47703000  2.77376000  1
  Mo  Mo29  1  7.93920000  1.64363000  1.38992000  1
  Mo  Mo30  1  9.45129000  3.37016000  3.71941000  1
  Mo  Mo31  1  4.63737000  4.91473000  1.28944000  1
  Mo  Mo32  1  8.07439000  1.70995000  4.86313000  1
  Mo  Mo33  1  6.35474000  3.29578000  -0.17365900  1
  Mo  Mo34  1  6.30534000  3.52678000  6.46559000  1
  Mo  Mo35  1  7.94887000  1.79178000  7.78040000  1
  Mo  Mo36  1  4.86684000  1.46541000  4.54126000  1
  Mo  Mo37  1  4.79066000  1.48015000  8.04398000  1
  Mo  Mo38  1  6.18896000  6.39236000  2.97136000  1
  Mo  Mo39  1  7.93473000  7.91430000  1.38205000  1
  Mo  Mo40  1  8.08290000  4.94540000  1.48057000  1
  Mo  Mo41  1  6.76155000  9.76263000  3.10524000  1
  Mo  Mo42  1  9.58091000  6.27064000  3.26117000  1
  Mo  Mo43  1  9.70035000  6.39658000  0.31381700  1
  Mo  Mo44  1  7.67610000  4.75804000  4.63352000  1
  Mo  Mo45  1  6.46844000  6.27994000  6.21602000  1
  Mo  Mo46  1  8.04400000  7.70198000  7.51891000  1
  Mo  Mo47  1  6.42521000  9.29042000  6.24489000  1
  Mo  Mo48  1  8.15531000  5.08624000  7.91422000  1
  Mo  Mo49  1  9.74687000  9.52145000  6.64557000  1
  Mo  Mo50  1  6.24365000  6.36455000  9.45955000  1
  Mo  Mo51  1  9.48505000  9.71026000  9.75844000  1
  Mo  Mo52  1  6.21812000  9.85405000  9.56150000  1
  Mo  Mo53  1  7.99621000  7.75015000  4.56576000  1
