# generated using pymatgen
data_Mo
_symmetry_space_group_name_H-M   'P 1'
_cell_length_a   18.98361487
_cell_length_b   3.16349647
_cell_length_c   3.16349647
_cell_angle_alpha   90.00000000
_cell_angle_beta   89.04515875
_cell_angle_gamma   90.00000000
_symmetry_Int_Tables_number   1
_chemical_formula_structural   Mo
_chemical_formula_sum   Mo12
_cell_volume   189.95612965
_cell_formula_units_Z   12
loop_
 _symmetry_equiv_pos_site_id
 _symmetry_equiv_pos_as_xyz
  1  'x, y, z'
loop_
 _atom_site_type_symbol
 _atom_site_label
 _atom_site_symmetry_multiplicity
 _atom_site_fract_x
 _atom_site_fract_y
 _atom_site_fract_z
 _atom_site_occupancy
  Mo  Mo0  1  0.07018485  0.01592072  0.03894022  1
  Mo  Mo1  1  1.67090475  1.65605117  1.54286610  1
  Mo  Mo2  1  3.20129684  -0.00602192  -0.00410668  1
  Mo  Mo3  1  4.76158084  1.58747917  1.63960818  1
  Mo  Mo4  1  6.35727170  0.00484098  0.01765961  1
  Mo  Mo5  1  7.92201678  1.64119188  1.57358578  1
  Mo  Mo6  1  9.50294517  -0.03398118  -0.10157364  1
  Mo  Mo7  1  11.09824260  1.61614082  1.55222034  1
  Mo  Mo8  1  12.74429066  -0.05786362  0.00182056  1
  Mo  Mo9  1  14.22828679  1.64273162  1.64020836  1
  Mo  Mo10  1  15.82364711  0.01504563  -0.03532158  1
  Mo  Mo11  1  17.32042231  1.56790614  1.58796875  1
