# generated using pymatgen
data_Mo
_symmetry_space_group_name_H-M   'P 1'
_cell_length_a   18.99152087
_cell_length_b   3.16349647
_cell_length_c   3.16349647
_cell_angle_alpha   90.00000000
_cell_angle_beta   88.09084757
_cell_angle_gamma   90.00000000
_symmetry_Int_Tables_number   1
_chemical_formula_structural   Mo
_chemical_formula_sum   Mo12
_cell_volume   189.95612965
_cell_formula_units_Z   12
loop_
 _symmetry_equiv_pos_site_id
 _symmetry_equiv_pos_as_xyz
  1  'x, y, z'
loop_
 _atom_site_type_symbol
 _atom_site_label
 _atom_site_symmetry_multiplicity
 _atom_site_fract_x
 _atom_site_fract_y
 _atom_site_fract_z
 _atom_site_occupancy
  Mo  Mo0  1  0.06462644  -0.02433943  -0.02101392  1
  Mo  Mo1  1  1.53905894  1.61617948  1.49017886  1
  Mo  Mo2  1  3.23291581  -0.03028549  0.01269334  1
  Mo  Mo3  1  4.73532321  1.63991988  1.49978316  1
  Mo  Mo4  1  6.31416520  -0.01528004  0.04510832  1
  Mo  Mo5  1  7.86498073  1.57488797  1.54682162  1
  Mo  Mo6  1  9.49216893  0.02318797  -0.04378940  1
  Mo  Mo7  1  11.11778179  1.61761906  1.60174054  1
  Mo  Mo8  1  12.68982746  -0.02720289  -0.00488933  1
  Mo  Mo9  1  14.19850345  1.57109000  1.60284903  1
  Mo  Mo10  1  15.78996382  -0.01578529  -0.02733996  1
  Mo  Mo11  1  17.36560310  1.55504193  1.58124436  1
