# generated using pymatgen
data_Mo
_symmetry_space_group_name_H-M   'P 1'
_cell_length_a   19.00469022
_cell_length_b   3.16349647
_cell_length_c   3.16349647
_cell_angle_alpha   90.00000000
_cell_angle_beta   87.13759477
_cell_angle_gamma   90.00000000
_symmetry_Int_Tables_number   1
_chemical_formula_structural   Mo
_chemical_formula_sum   Mo12
_cell_volume   189.95612965
_cell_formula_units_Z   12
loop_
 _symmetry_equiv_pos_site_id
 _symmetry_equiv_pos_as_xyz
  1  'x, y, z'
loop_
 _atom_site_type_symbol
 _atom_site_label
 _atom_site_symmetry_multiplicity
 _atom_site_fract_x
 _atom_site_fract_y
 _atom_site_fract_z
 _atom_site_occupancy
  Mo  Mo0  1  -0.01658119  -0.00223864  -0.08499102  1
  Mo  Mo1  1  1.64700829  1.51039434  1.54825834  1
  Mo  Mo2  1  3.18350419  -0.04954521  -0.04209185  1
  Mo  Mo3  1  4.70907880  1.60368846  1.67294637  1
  Mo  Mo4  1  6.32864563  -0.04447796  0.02144706  1
  Mo  Mo5  1  7.88502227  1.58098710  1.62849701  1
  Mo  Mo6  1  9.46073450  0.00035908  -0.03493654  1
  Mo  Mo7  1  11.06601372  1.59195618  1.54240852  1
  Mo  Mo8  1  12.64050545  -0.00939686  -0.02536984  1
  Mo  Mo9  1  14.18848359  1.52520347  1.57564125  1
  Mo  Mo10  1  15.80677760  0.08877749  -0.09687003  1
  Mo  Mo11  1  17.40371553  1.59648679  1.63584282  1
