# generated using pymatgen
data_Mo
_symmetry_space_group_name_H-M   'P 1'
_cell_length_a   19.02311200
_cell_length_b   3.16349647
_cell_length_c   3.16349647
_cell_angle_alpha   90.00000000
_cell_angle_beta   86.18592517
_cell_angle_gamma   90.00000000
_symmetry_Int_Tables_number   1
_chemical_formula_structural   Mo
_chemical_formula_sum   Mo12
_cell_volume   189.95612965
_cell_formula_units_Z   12
loop_
 _symmetry_equiv_pos_site_id
 _symmetry_equiv_pos_as_xyz
  1  'x, y, z'
loop_
 _atom_site_type_symbol
 _atom_site_label
 _atom_site_symmetry_multiplicity
 _atom_site_fract_x
 _atom_site_fract_y
 _atom_site_fract_z
 _atom_site_occupancy
  Mo  Mo0  1  0.07116264  0.01736704  0.00383926  1
  Mo  Mo1  1  1.50760703  1.57071202  1.56763374  1
  Mo  Mo2  1  3.16020451  -0.02494595  -0.00174336  1
  Mo  Mo3  1  4.72625803  1.52947461  1.61694396  1
  Mo  Mo4  1  6.36205719  0.06801733  0.00199065  1
  Mo  Mo5  1  7.89264060  1.56005046  1.52021986  1
  Mo  Mo6  1  9.52957403  -0.04380725  -0.04714844  1
  Mo  Mo7  1  11.06405562  1.64087635  1.59116626  1
  Mo  Mo8  1  12.61325339  -0.02836726  0.02487609  1
  Mo  Mo9  1  14.22934791  1.55115920  1.57259620  1
  Mo  Mo10  1  15.84712527  0.07862183  -0.04949887  1
  Mo  Mo11  1  17.37430785  1.54976948  1.48550222  1
