# generated using pymatgen
data_Mo
_symmetry_space_group_name_H-M   'P 1'
_cell_length_a   19.04677096
_cell_length_b   3.16349647
_cell_length_c   3.16349647
_cell_angle_alpha   90.00000000
_cell_angle_beta   85.23635831
_cell_angle_gamma   90.00000000
_symmetry_Int_Tables_number   1
_chemical_formula_structural   Mo
_chemical_formula_sum   Mo12
_cell_volume   189.95612965
_cell_formula_units_Z   12
loop_
 _symmetry_equiv_pos_site_id
 _symmetry_equiv_pos_as_xyz
  1  'x, y, z'
loop_
 _atom_site_type_symbol
 _atom_site_label
 _atom_site_symmetry_multiplicity
 _atom_site_fract_x
 _atom_site_fract_y
 _atom_site_fract_z
 _atom_site_occupancy
  Mo  Mo0  1  0.00201166  0.01989113  -0.03962339  1
  Mo  Mo1  1  1.60934384  1.56510562  1.51870400  1
  Mo  Mo2  1  3.13772671  0.02381500  0.01321895  1
  Mo  Mo3  1  4.69959102  1.60636272  1.57824757  1
  Mo  Mo4  1  6.34390493  0.01321908  -0.04602527  1
  Mo  Mo5  1  7.92270599  1.55760252  1.64329658  1
  Mo  Mo6  1  9.51926839  0.00183555  -0.03910945  1
  Mo  Mo7  1  11.07440330  1.58810976  1.53364884  1
  Mo  Mo8  1  12.74244481  0.01568749  0.06733240  1
  Mo  Mo9  1  14.19145959  1.64682833  1.52760065  1
  Mo  Mo10  1  15.79157258  0.02158205  0.00190998  1
  Mo  Mo11  1  17.30541190  1.53776131  1.61508251  1
