# generated using pymatgen
data_Mo
_symmetry_space_group_name_H-M   'P 1'
_cell_length_a   19.14895535
_cell_length_b   3.16349647
_cell_length_c   3.16349647
_cell_angle_alpha   90.00000000
_cell_angle_beta   82.40535663
_cell_angle_gamma   90.00000000
_symmetry_Int_Tables_number   1
_chemical_formula_structural   Mo
_chemical_formula_sum   Mo12
_cell_volume   189.95612965
_cell_formula_units_Z   12
loop_
 _symmetry_equiv_pos_site_id
 _symmetry_equiv_pos_as_xyz
  1  'x, y, z'
loop_
 _atom_site_type_symbol
 _atom_site_label
 _atom_site_symmetry_multiplicity
 _atom_site_fract_x
 _atom_site_fract_y
 _atom_site_fract_z
 _atom_site_occupancy
  Mo  Mo0  1  0.06725951  -0.01853785  0.00130579  1
  Mo  Mo1  1  1.59796173  1.55036002  1.58183041  1
  Mo  Mo2  1  3.16346104  -0.06981372  0.04048869  1
  Mo  Mo3  1  4.76913623  1.55686482  1.57492299  1
  Mo  Mo4  1  6.34709685  -0.01039837  -0.00965805  1
  Mo  Mo5  1  7.85092229  1.60381285  1.58667698  1
  Mo  Mo6  1  9.50140912  -0.06073453  0.06567499  1
  Mo  Mo7  1  11.07837806  1.56634542  1.66247720  1
  Mo  Mo8  1  12.65218014  -0.05771692  -0.01612245  1
  Mo  Mo9  1  14.14469087  1.62349968  1.56517832  1
  Mo  Mo10  1  15.78793900  0.04266946  -0.06568993  1
  Mo  Mo11  1  17.42053324  1.49961311  1.55540347  1
