# generated using pymatgen
data_Mo
_symmetry_space_group_name_H-M   'P 1'
_cell_length_a   19.19332701
_cell_length_b   3.16349647
_cell_length_c   3.16349647
_cell_angle_alpha   90.00000000
_cell_angle_beta   81.46923439
_cell_angle_gamma   90.00000000
_symmetry_Int_Tables_number   1
_chemical_formula_structural   Mo
_chemical_formula_sum   Mo12
_cell_volume   189.95612965
_cell_formula_units_Z   12
loop_
 _symmetry_equiv_pos_site_id
 _symmetry_equiv_pos_as_xyz
  1  'x, y, z'
loop_
 _atom_site_type_symbol
 _atom_site_label
 _atom_site_symmetry_multiplicity
 _atom_site_fract_x
 _atom_site_fract_y
 _atom_site_fract_z
 _atom_site_occupancy
  Mo  Mo0  1  0.00362869  0.04341794  -0.07746245  1
  Mo  Mo1  1  1.52659073  1.49037967  1.67762626  1
  Mo  Mo2  1  3.23224043  0.08771081  0.03162314  1
  Mo  Mo3  1  4.78409274  1.53466422  1.65799296  1
  Mo  Mo4  1  6.28230009  -0.02641942  -0.01505343  1
  Mo  Mo5  1  7.87724584  1.61594634  1.57256602  1
  Mo  Mo6  1  9.48787701  -0.00830083  0.05358671  1
  Mo  Mo7  1  11.04808933  1.57481556  1.59861961  1
  Mo  Mo8  1  12.58849827  -0.01923824  0.02130422  1
  Mo  Mo9  1  14.28213035  1.58818097  1.55497876  1
  Mo  Mo10  1  15.87487483  -0.00881186  0.00124388  1
  Mo  Mo11  1  17.40646885  1.57924453  1.56020131  1
