# generated using pymatgen
data_Mo
_symmetry_space_group_name_H-M   'P 1'
_cell_length_a   18.98625057
_cell_length_b   3.16349647
_cell_length_c   3.16349647
_cell_angle_alpha   90.00000000
_cell_angle_beta   89.04529131
_cell_angle_gamma   89.04529131
_symmetry_Int_Tables_number   1
_chemical_formula_structural   Mo
_chemical_formula_sum   Mo12
_cell_volume   189.95612965
_cell_formula_units_Z   12
loop_
 _symmetry_equiv_pos_site_id
 _symmetry_equiv_pos_as_xyz
  1  'x, y, z'
loop_
 _atom_site_type_symbol
 _atom_site_label
 _atom_site_symmetry_multiplicity
 _atom_site_fract_x
 _atom_site_fract_y
 _atom_site_fract_z
 _atom_site_occupancy
  Mo  Mo0  1  0.05297870  0.02845819  -0.06148552  1
  Mo  Mo1  1  1.58141468  1.60646879  1.55309880  1
  Mo  Mo2  1  3.17406015  0.00431873  0.00017075  1
  Mo  Mo3  1  4.73829803  1.59897668  1.62961245  1
  Mo  Mo4  1  6.28859669  0.04091106  0.00909631  1
  Mo  Mo5  1  7.92645148  1.53652720  1.58712481  1
  Mo  Mo6  1  9.54955342  -0.04296128  -0.07868620  1
  Mo  Mo7  1  11.00287557  1.59233414  1.67663689  1
  Mo  Mo8  1  12.69869322  0.06654720  0.00394477  1
  Mo  Mo9  1  14.29135501  1.57095632  1.60614527  1
  Mo  Mo10  1  15.80684682  -0.02185489  0.00527995  1
  Mo  Mo11  1  17.38028671  1.63380733  1.58950706  1
