# generated using pymatgen
data_Mo
_symmetry_space_group_name_H-M   'P 1'
_cell_length_a   19.00732300
_cell_length_b   3.16349647
_cell_length_c   3.16349647
_cell_angle_alpha   90.00000000
_cell_angle_beta   87.13799159
_cell_angle_gamma   89.04634984
_symmetry_Int_Tables_number   1
_chemical_formula_structural   Mo
_chemical_formula_sum   Mo12
_cell_volume   189.95612965
_cell_formula_units_Z   12
loop_
 _symmetry_equiv_pos_site_id
 _symmetry_equiv_pos_as_xyz
  1  'x, y, z'
loop_
 _atom_site_type_symbol
 _atom_site_label
 _atom_site_symmetry_multiplicity
 _atom_site_fract_x
 _atom_site_fract_y
 _atom_site_fract_z
 _atom_site_occupancy
  Mo  Mo0  1  0.01881829  -0.02711131  0.00964574  1
  Mo  Mo1  1  1.51408250  1.61171288  1.52068758  1
  Mo  Mo2  1  3.16370046  -0.00478340  -0.03210671  1
  Mo  Mo3  1  4.85950334  1.55796316  1.60054548  1
  Mo  Mo4  1  6.37059680  -0.04834688  0.05340719  1
  Mo  Mo5  1  7.90388130  1.62203232  1.54538890  1
  Mo  Mo6  1  9.44952836  0.04813314  0.01996756  1
  Mo  Mo7  1  11.07776179  1.60724165  1.60272877  1
  Mo  Mo8  1  12.60805832  -0.08806002  -0.06691061  1
  Mo  Mo9  1  14.16459272  1.49348126  1.55598946  1
  Mo  Mo10  1  15.79645917  -0.00155998  0.00855307  1
  Mo  Mo11  1  17.38393842  1.57164636  1.58466264  1
