# generated using pymatgen
data_Mo
_symmetry_space_group_name_H-M   'P 1'
_cell_length_a   19.11233663
_cell_length_b   3.16349647
_cell_length_c   3.16349647
_cell_angle_alpha   90.00000000
_cell_angle_beta   83.34649070
_cell_angle_gamma   89.05159020
_symmetry_Int_Tables_number   1
_chemical_formula_structural   Mo
_chemical_formula_sum   Mo12
_cell_volume   189.95612965
_cell_formula_units_Z   12
loop_
 _symmetry_equiv_pos_site_id
 _symmetry_equiv_pos_as_xyz
  1  'x, y, z'
loop_
 _atom_site_type_symbol
 _atom_site_label
 _atom_site_symmetry_multiplicity
 _atom_site_fract_x
 _atom_site_fract_y
 _atom_site_fract_z
 _atom_site_occupancy
  Mo  Mo0  1  -0.02834328  0.02998947  -0.00177060  1
  Mo  Mo1  1  1.59972410  1.63526466  1.60292791  1
  Mo  Mo2  1  3.21721525  0.03426428  0.05883121  1
  Mo  Mo3  1  4.70365316  1.55035739  1.53155378  1
  Mo  Mo4  1  6.34938644  -0.00968101  0.03635422  1
  Mo  Mo5  1  7.92136734  1.58681314  1.66730370  1
  Mo  Mo6  1  9.51461130  -0.00106514  -0.03915596  1
  Mo  Mo7  1  11.11961122  1.61965769  1.53849347  1
  Mo  Mo8  1  12.64820847  0.00946344  -0.06521322  1
  Mo  Mo9  1  14.22466821  1.63741854  1.51748930  1
  Mo  Mo10  1  15.83701224  0.07530493  -0.02470639  1
  Mo  Mo11  1  17.38117751  1.59039980  1.60221139  1
