# generated using pymatgen
data_Mo
_symmetry_space_group_name_H-M   'P 1'
_cell_length_a   19.19593391
_cell_length_b   3.16349647
_cell_length_c   3.16349647
_cell_angle_alpha   90.00000000
_cell_angle_beta   81.47040155
_cell_angle_gamma   89.05572085
_symmetry_Int_Tables_number   1
_chemical_formula_structural   Mo
_chemical_formula_sum   Mo12
_cell_volume   189.95612965
_cell_formula_units_Z   12
loop_
 _symmetry_equiv_pos_site_id
 _symmetry_equiv_pos_as_xyz
  1  'x, y, z'
loop_
 _atom_site_type_symbol
 _atom_site_label
 _atom_site_symmetry_multiplicity
 _atom_site_fract_x
 _atom_site_fract_y
 _atom_site_fract_z
 _atom_site_occupancy
  Mo  Mo0  1  -0.01242635  0.01349884  -0.00620299  1
  Mo  Mo1  1  1.56178395  1.59112061  1.51158117  1
  Mo  Mo2  1  3.11989635  -0.04327801  -0.01214154  1
  Mo  Mo3  1  4.72639608  1.57376735  1.59588015  1
  Mo  Mo4  1  6.35442619  0.01633579  -0.02247832  1
  Mo  Mo5  1  7.93258861  1.57526563  1.64541460  1
  Mo  Mo6  1  9.51760873  0.00059202  -0.00349242  1
  Mo  Mo7  1  11.03316296  1.58658982  1.53649398  1
  Mo  Mo8  1  12.66787134  -0.07394309  -0.04643768  1
  Mo  Mo9  1  14.29242527  1.64129080  1.63306966  1
  Mo  Mo10  1  15.74539998  -0.05961188  -0.05769561  1
  Mo  Mo11  1  17.33183653  1.59079019  1.56226357  1
