# generated using pymatgen
data_Mo
_symmetry_space_group_name_H-M   'P 1'
_cell_length_a   18.99152087
_cell_length_b   3.16349647
_cell_length_c   3.16349647
_cell_angle_alpha   90.00000000
_cell_angle_beta   90.00000000
_cell_angle_gamma   88.09084757
_symmetry_Int_Tables_number   1
_chemical_formula_structural   Mo
_chemical_formula_sum   Mo12
_cell_volume   189.95612965
_cell_formula_units_Z   12
loop_
 _symmetry_equiv_pos_site_id
 _symmetry_equiv_pos_as_xyz
  1  'x, y, z'
loop_
 _atom_site_type_symbol
 _atom_site_label
 _atom_site_symmetry_multiplicity
 _atom_site_fract_x
 _atom_site_fract_y
 _atom_site_fract_z
 _atom_site_occupancy
  Mo  Mo0  1  0.00509059  -0.06081207  -0.02365159  1
  Mo  Mo1  1  1.58438726  1.53259265  1.55702637  1
  Mo  Mo2  1  3.12812867  0.01984970  -0.03130760  1
  Mo  Mo3  1  4.74996905  1.55163556  1.60137740  1
  Mo  Mo4  1  6.29359627  -0.04038381  -0.01362754  1
  Mo  Mo5  1  7.98371673  1.57096965  1.52398991  1
  Mo  Mo6  1  9.44751404  0.10205452  -0.00876181  1
  Mo  Mo7  1  11.06868074  1.59274279  1.64589389  1
  Mo  Mo8  1  12.68247135  0.02620444  0.00838459  1
  Mo  Mo9  1  14.21327708  1.58732569  1.56828269  1
  Mo  Mo10  1  15.76158966  -0.09893392  0.05066939  1
  Mo  Mo11  1  17.44218958  1.60754566  1.60388605  1
