# generated using pymatgen
data_Mo
_symmetry_space_group_name_H-M   'P 1'
_cell_length_a   18.99415547
_cell_length_b   3.16349647
_cell_length_c   3.16349647
_cell_angle_alpha   90.00000000
_cell_angle_beta   89.04568867
_cell_angle_gamma   88.09111248
_symmetry_Int_Tables_number   1
_chemical_formula_structural   Mo
_chemical_formula_sum   Mo12
_cell_volume   189.95612965
_cell_formula_units_Z   12
loop_
 _symmetry_equiv_pos_site_id
 _symmetry_equiv_pos_as_xyz
  1  'x, y, z'
loop_
 _atom_site_type_symbol
 _atom_site_label
 _atom_site_symmetry_multiplicity
 _atom_site_fract_x
 _atom_site_fract_y
 _atom_site_fract_z
 _atom_site_occupancy
  Mo  Mo0  1  0.01099156  -0.07378851  0.02482261  1
  Mo  Mo1  1  1.62731576  1.62301405  1.65681033  1
  Mo  Mo2  1  3.15905243  -0.01440662  0.00591520  1
  Mo  Mo3  1  4.72782699  1.66813419  1.62759422  1
  Mo  Mo4  1  6.25462939  -0.00549245  0.02147814  1
  Mo  Mo5  1  7.83810952  1.63406211  1.56291156  1
  Mo  Mo6  1  9.44703378  -0.00994763  -0.03908170  1
  Mo  Mo7  1  11.11326786  1.60129651  1.56397788  1
  Mo  Mo8  1  12.62190391  0.00522264  -0.04824310  1
  Mo  Mo9  1  14.24209953  1.55170082  1.59566925  1
  Mo  Mo10  1  15.85637497  -0.00551378  0.00413204  1
  Mo  Mo11  1  17.41118993  1.62026939  1.61634721  1
