# generated using pymatgen
data_Mo
_symmetry_space_group_name_H-M   'P 1'
_cell_length_a   19.00205708
_cell_length_b   3.16349647
_cell_length_c   3.16349647
_cell_angle_alpha   90.00000000
_cell_angle_beta   88.09190654
_cell_angle_gamma   88.09190654
_symmetry_Int_Tables_number   1
_chemical_formula_structural   Mo
_chemical_formula_sum   Mo12
_cell_volume   189.95612965
_cell_formula_units_Z   12
loop_
 _symmetry_equiv_pos_site_id
 _symmetry_equiv_pos_as_xyz
  1  'x, y, z'
loop_
 _atom_site_type_symbol
 _atom_site_label
 _atom_site_symmetry_multiplicity
 _atom_site_fract_x
 _atom_site_fract_y
 _atom_site_fract_z
 _atom_site_occupancy
  Mo  Mo0  1  0.00316015  0.08713971  -0.00536684  1
  Mo  Mo1  1  1.58813462  1.59936147  1.60655058  1
  Mo  Mo2  1  3.20363686  0.01568564  -0.01338354  1
  Mo  Mo3  1  4.71954658  1.61379429  1.59831688  1
  Mo  Mo4  1  6.34985484  -0.04383126  -0.03957755  1
  Mo  Mo5  1  7.96227420  1.60489850  1.60312290  1
  Mo  Mo6  1  9.57272924  -0.01155087  0.02392600  1
  Mo  Mo7  1  11.04977729  1.53527993  1.54108670  1
  Mo  Mo8  1  12.68913771  -0.02123564  -0.05372850  1
  Mo  Mo9  1  14.24488867  1.61735105  1.63628549  1
  Mo  Mo10  1  15.91550354  0.04487485  -0.03259338  1
  Mo  Mo11  1  17.40191471  1.62460652  1.55972481  1
