# generated using pymatgen
data_Mo
_symmetry_space_group_name_H-M   'P 1'
_cell_length_a   19.15940498
_cell_length_b   3.16349647
_cell_length_c   3.16349647
_cell_angle_alpha   90.00000000
_cell_angle_beta   82.40952320
_cell_angle_gamma   88.10758261
_symmetry_Int_Tables_number   1
_chemical_formula_structural   Mo
_chemical_formula_sum   Mo12
_cell_volume   189.95612965
_cell_formula_units_Z   12
loop_
 _symmetry_equiv_pos_site_id
 _symmetry_equiv_pos_as_xyz
  1  'x, y, z'
loop_
 _atom_site_type_symbol
 _atom_site_label
 _atom_site_symmetry_multiplicity
 _atom_site_fract_x
 _atom_site_fract_y
 _atom_site_fract_z
 _atom_site_occupancy
  Mo  Mo0  1  0.00879287  -0.01354579  -0.02298639  1
  Mo  Mo1  1  1.56567337  1.55774567  1.57204629  1
  Mo  Mo2  1  3.20468882  0.02310595  0.01004257  1
  Mo  Mo3  1  4.68705563  1.52014569  1.59230242  1
  Mo  Mo4  1  6.32695728  -0.04042243  0.00445563  1
  Mo  Mo5  1  7.86131799  1.64363734  1.54461582  1
  Mo  Mo6  1  9.51143818  -0.00596651  0.02079963  1
  Mo  Mo7  1  11.12563680  1.64375579  1.63171939  1
  Mo  Mo8  1  12.69013569  -0.03345623  0.04000835  1
  Mo  Mo9  1  14.19500088  1.58898032  1.56517010  1
  Mo  Mo10  1  15.89619561  0.07628775  -0.04101980  1
  Mo  Mo11  1  17.38000145  1.55608297  1.58414925  1
