# generated using pymatgen
data_Mo
_symmetry_space_group_name_H-M   'P 1'
_cell_length_a   19.20375250
_cell_length_b   3.16349647
_cell_length_c   3.16349647
_cell_angle_alpha   90.00000000
_cell_angle_beta   81.47390014
_cell_angle_gamma   88.11195438
_symmetry_Int_Tables_number   1
_chemical_formula_structural   Mo
_chemical_formula_sum   Mo12
_cell_volume   189.95612965
_cell_formula_units_Z   12
loop_
 _symmetry_equiv_pos_site_id
 _symmetry_equiv_pos_as_xyz
  1  'x, y, z'
loop_
 _atom_site_type_symbol
 _atom_site_label
 _atom_site_symmetry_multiplicity
 _atom_site_fract_x
 _atom_site_fract_y
 _atom_site_fract_z
 _atom_site_occupancy
  Mo  Mo0  1  0.03516670  0.00779272  0.01422500  1
  Mo  Mo1  1  1.48851886  1.53858692  1.60401639  1
  Mo  Mo2  1  3.20087434  -0.03892999  0.02001628  1
  Mo  Mo3  1  4.76141437  1.59461750  1.56211731  1
  Mo  Mo4  1  6.29548164  -0.03351458  -0.05090649  1
  Mo  Mo5  1  7.91851723  1.57998989  1.64411829  1
  Mo  Mo6  1  9.53230898  0.01616784  -0.00670977  1
  Mo  Mo7  1  10.94533165  1.62631398  1.63477434  1
  Mo  Mo8  1  12.64430436  -0.00517342  -0.00433738  1
  Mo  Mo9  1  14.29764878  1.58687182  1.49951230  1
  Mo  Mo10  1  15.78225197  -0.04394696  0.03711515  1
  Mo  Mo11  1  17.48118359  1.54455065  1.51757356  1
