# generated using pymatgen
data_Mo
_symmetry_space_group_name_H-M   'P 1'
_cell_length_a   19.00469022
_cell_length_b   3.16349647
_cell_length_c   3.16349647
_cell_angle_alpha   90.00000000
_cell_angle_beta   90.00000000
_cell_angle_gamma   87.13759477
_symmetry_Int_Tables_number   1
_chemical_formula_structural   Mo
_chemical_formula_sum   Mo12
_cell_volume   189.95612965
_cell_formula_units_Z   12
loop_
 _symmetry_equiv_pos_site_id
 _symmetry_equiv_pos_as_xyz
  1  'x, y, z'
loop_
 _atom_site_type_symbol
 _atom_site_label
 _atom_site_symmetry_multiplicity
 _atom_site_fract_x
 _atom_site_fract_y
 _atom_site_fract_z
 _atom_site_occupancy
  Mo  Mo0  1  -0.00206745  -0.00442406  0.04144908  1
  Mo  Mo1  1  1.53174742  1.61140434  1.51367199  1
  Mo  Mo2  1  3.15530591  -0.00933268  0.04488450  1
  Mo  Mo3  1  4.74474237  1.55735135  1.63640200  1
  Mo  Mo4  1  6.39108811  -0.02742174  0.02752898  1
  Mo  Mo5  1  7.89091238  1.58820722  1.59198239  1
  Mo  Mo6  1  9.43974393  0.00254650  -0.04224718  1
  Mo  Mo7  1  11.03287448  1.56353719  1.50280528  1
  Mo  Mo8  1  12.59524392  0.00922255  0.02562862  1
  Mo  Mo9  1  14.26963679  1.56328671  1.60948620  1
  Mo  Mo10  1  15.87986234  0.04689022  -0.05506231  1
  Mo  Mo11  1  17.32971089  1.59777106  1.63126141  1
