# generated using pymatgen
data_Mo
_symmetry_space_group_name_H-M   'P 1'
_cell_length_a   19.21677641
_cell_length_b   3.16349647
_cell_length_c   3.16349647
_cell_angle_alpha   90.00000000
_cell_angle_beta   81.47972158
_cell_angle_gamma   87.16921162
_symmetry_Int_Tables_number   1
_chemical_formula_structural   Mo
_chemical_formula_sum   Mo12
_cell_volume   189.95612965
_cell_formula_units_Z   12
loop_
 _symmetry_equiv_pos_site_id
 _symmetry_equiv_pos_as_xyz
  1  'x, y, z'
loop_
 _atom_site_type_symbol
 _atom_site_label
 _atom_site_symmetry_multiplicity
 _atom_site_fract_x
 _atom_site_fract_y
 _atom_site_fract_z
 _atom_site_occupancy
  Mo  Mo0  1  0.02653688  0.00102700  -0.03093849  1
  Mo  Mo1  1  1.61949071  1.60966505  1.53992975  1
  Mo  Mo2  1  3.14887315  -0.04525515  -0.05260316  1
  Mo  Mo3  1  4.81575604  1.56792417  1.60841053  1
  Mo  Mo4  1  6.33981488  0.00240081  -0.04151485  1
  Mo  Mo5  1  7.86855946  1.59932321  1.62666189  1
  Mo  Mo6  1  9.41735977  -0.03734999  -0.00803046  1
  Mo  Mo7  1  11.11382894  1.60315962  1.61405931  1
  Mo  Mo8  1  12.66357856  -0.03789668  -0.00542153  1
  Mo  Mo9  1  14.28615304  1.58865645  1.53307964  1
  Mo  Mo10  1  15.87379248  0.01821056  0.02899916  1
  Mo  Mo11  1  17.47754701  1.55995386  1.55471679  1
