# generated using pymatgen
data_Mo
_symmetry_space_group_name_H-M   'P 1'
_cell_length_a   19.02311200
_cell_length_b   3.16349647
_cell_length_c   3.16349647
_cell_angle_alpha   90.00000000
_cell_angle_beta   90.00000000
_cell_angle_gamma   86.18592517
_symmetry_Int_Tables_number   1
_chemical_formula_structural   Mo
_chemical_formula_sum   Mo12
_cell_volume   189.95612965
_cell_formula_units_Z   12
loop_
 _symmetry_equiv_pos_site_id
 _symmetry_equiv_pos_as_xyz
  1  'x, y, z'
loop_
 _atom_site_type_symbol
 _atom_site_label
 _atom_site_symmetry_multiplicity
 _atom_site_fract_x
 _atom_site_fract_y
 _atom_site_fract_z
 _atom_site_occupancy
  Mo  Mo0  1  0.05288424  -0.03063667  -0.01258358  1
  Mo  Mo1  1  1.54232769  1.53914458  1.52450737  1
  Mo  Mo2  1  3.18595244  0.01176564  -0.06470837  1
  Mo  Mo3  1  4.75398036  1.60875526  1.65691512  1
  Mo  Mo4  1  6.36524885  0.00413820  -0.01914371  1
  Mo  Mo5  1  7.94256848  1.63957441  1.62383153  1
  Mo  Mo6  1  9.49707646  0.02049060  -0.05319152  1
  Mo  Mo7  1  11.09463172  1.63716456  1.57922866  1
  Mo  Mo8  1  12.65882658  0.04804586  -0.00008117  1
  Mo  Mo9  1  14.30049784  1.59585214  1.62302746  1
  Mo  Mo10  1  15.80213748  0.02068155  0.06710265  1
  Mo  Mo11  1  17.34647560  1.63860199  1.49862087  1
