# generated using pymatgen
data_Mo
_symmetry_space_group_name_H-M   'P 1'
_cell_length_a   19.04677096
_cell_length_b   3.16349647
_cell_length_c   3.16349647
_cell_angle_alpha   90.00000000
_cell_angle_beta   90.00000000
_cell_angle_gamma   85.23635831
_symmetry_Int_Tables_number   1
_chemical_formula_structural   Mo
_chemical_formula_sum   Mo12
_cell_volume   189.95612965
_cell_formula_units_Z   12
loop_
 _symmetry_equiv_pos_site_id
 _symmetry_equiv_pos_as_xyz
  1  'x, y, z'
loop_
 _atom_site_type_symbol
 _atom_site_label
 _atom_site_symmetry_multiplicity
 _atom_site_fract_x
 _atom_site_fract_y
 _atom_site_fract_z
 _atom_site_occupancy
  Mo  Mo0  1  0.00908210  0.04085601  -0.03340384  1
  Mo  Mo1  1  1.55822740  1.54367733  1.57290275  1
  Mo  Mo2  1  3.13883245  0.07312314  -0.08169015  1
  Mo  Mo3  1  4.77980228  1.54511575  1.57250544  1
  Mo  Mo4  1  6.41265081  -0.05310105  0.00303885  1
  Mo  Mo5  1  7.85916408  1.62958202  1.53997510  1
  Mo  Mo6  1  9.53252785  -0.01669736  0.09130294  1
  Mo  Mo7  1  10.96901297  1.69405484  1.60883818  1
  Mo  Mo8  1  12.59121552  -0.07862751  0.02121953  1
  Mo  Mo9  1  14.22416153  1.56131726  1.66062928  1
  Mo  Mo10  1  15.82647405  -0.07320273  0.06396303  1
  Mo  Mo11  1  17.41467922  1.59765203  1.59788058  1
