# generated using pymatgen
data_Mo
_symmetry_space_group_name_H-M   'P 1'
_cell_length_a   19.07564762
_cell_length_b   3.16349647
_cell_length_c   3.16349647
_cell_angle_alpha   90.00000000
_cell_angle_beta   90.00000000
_cell_angle_gamma   84.28940686
_symmetry_Int_Tables_number   1
_chemical_formula_structural   Mo
_chemical_formula_sum   Mo12
_cell_volume   189.95612965
_cell_formula_units_Z   12
loop_
 _symmetry_equiv_pos_site_id
 _symmetry_equiv_pos_as_xyz
  1  'x, y, z'
loop_
 _atom_site_type_symbol
 _atom_site_label
 _atom_site_symmetry_multiplicity
 _atom_site_fract_x
 _atom_site_fract_y
 _atom_site_fract_z
 _atom_site_occupancy
  Mo  Mo0  1  0.00779782  -0.07723432  0.02839878  1
  Mo  Mo1  1  1.60809256  1.57264270  1.59256014  1
  Mo  Mo2  1  3.16233993  -0.07000700  -0.03160136  1
  Mo  Mo3  1  4.77001646  1.58808777  1.52945716  1
  Mo  Mo4  1  6.36503870  -0.03167338  -0.03681068  1
  Mo  Mo5  1  7.86768277  1.55849981  1.69099803  1
  Mo  Mo6  1  9.51028776  0.08307790  0.00273828  1
  Mo  Mo7  1  11.08312463  1.54315829  1.62326623  1
  Mo  Mo8  1  12.71200830  0.02318067  0.02544505  1
  Mo  Mo9  1  14.24423181  1.59374574  1.61398542  1
  Mo  Mo10  1  15.85859423  -0.04601213  -0.02548273  1
  Mo  Mo11  1  17.38401865  1.50520677  1.64059517  1
