# generated using pymatgen
data_Mo
_symmetry_space_group_name_H-M   'P 1'
_cell_length_a   19.11233663
_cell_length_b   3.16349647
_cell_length_c   3.16349647
_cell_angle_alpha   90.00000000
_cell_angle_beta   89.05159020
_cell_angle_gamma   83.34649070
_symmetry_Int_Tables_number   1
_chemical_formula_structural   Mo
_chemical_formula_sum   Mo12
_cell_volume   189.95612965
_cell_formula_units_Z   12
loop_
 _symmetry_equiv_pos_site_id
 _symmetry_equiv_pos_as_xyz
  1  'x, y, z'
loop_
 _atom_site_type_symbol
 _atom_site_label
 _atom_site_symmetry_multiplicity
 _atom_site_fract_x
 _atom_site_fract_y
 _atom_site_fract_z
 _atom_site_occupancy
  Mo  Mo0  1  0.01775785  0.06640786  -0.01051468  1
  Mo  Mo1  1  1.54324180  1.58410311  1.64200913  1
  Mo  Mo2  1  3.17689926  -0.01203008  -0.03336633  1
  Mo  Mo3  1  4.72464617  1.59183433  1.48289142  1
  Mo  Mo4  1  6.30107545  -0.07063909  0.00932133  1
  Mo  Mo5  1  7.95805211  1.55587393  1.57115656  1
  Mo  Mo6  1  9.46905582  0.01673964  -0.00379107  1
  Mo  Mo7  1  11.04160724  1.57443854  1.58878278  1
  Mo  Mo8  1  12.68331050  0.02760612  -0.03244681  1
  Mo  Mo9  1  14.25115843  1.58598693  1.56923243  1
  Mo  Mo10  1  15.78964346  0.00210820  0.03716455  1
  Mo  Mo11  1  17.45731327  1.51893080  1.61963524  1
