# generated using pymatgen
data_Mo
_symmetry_space_group_name_H-M   'P 1'
_cell_length_a   19.32065163
_cell_length_b   3.16349647
_cell_length_c   3.16349647
_cell_angle_alpha   90.00000000
_cell_angle_beta   81.52586776
_cell_angle_gamma   83.41854770
_symmetry_Int_Tables_number   1
_chemical_formula_structural   Mo
_chemical_formula_sum   Mo12
_cell_volume   189.95612965
_cell_formula_units_Z   12
loop_
 _symmetry_equiv_pos_site_id
 _symmetry_equiv_pos_as_xyz
  1  'x, y, z'
loop_
 _atom_site_type_symbol
 _atom_site_label
 _atom_site_symmetry_multiplicity
 _atom_site_fract_x
 _atom_site_fract_y
 _atom_site_fract_z
 _atom_site_occupancy
  Mo  Mo0  1  -0.01661001  0.02809030  0.07622966  1
  Mo  Mo1  1  1.49653603  1.61035674  1.60033124  1
  Mo  Mo2  1  3.19400141  0.03509176  0.03217708  1
  Mo  Mo3  1  4.70756067  1.57661428  1.55664872  1
  Mo  Mo4  1  6.26976364  0.02594872  0.03918719  1
  Mo  Mo5  1  7.86320964  1.59713896  1.59872040  1
  Mo  Mo6  1  9.57429739  -0.00787231  -0.00988289  1
  Mo  Mo7  1  11.14042386  1.57086408  1.63535911  1
  Mo  Mo8  1  12.66764125  -0.03563546  0.08427707  1
  Mo  Mo9  1  14.22435139  1.59142537  1.55712159  1
  Mo  Mo10  1  15.88264609  -0.00231235  -0.07308478  1
  Mo  Mo11  1  17.36825693  1.61489806  1.57998619  1
