# generated using pymatgen
data_Mo
_symmetry_space_group_name_H-M   'P 1'
_cell_length_a   19.14895535
_cell_length_b   3.16349647
_cell_length_c   3.16349647
_cell_angle_alpha   90.00000000
_cell_angle_beta   90.00000000
_cell_angle_gamma   82.40535663
_symmetry_Int_Tables_number   1
_chemical_formula_structural   Mo
_chemical_formula_sum   Mo12
_cell_volume   189.95612965
_cell_formula_units_Z   12
loop_
 _symmetry_equiv_pos_site_id
 _symmetry_equiv_pos_as_xyz
  1  'x, y, z'
loop_
 _atom_site_type_symbol
 _atom_site_label
 _atom_site_symmetry_multiplicity
 _atom_site_fract_x
 _atom_site_fract_y
 _atom_site_fract_z
 _atom_site_occupancy
  Mo  Mo0  1  -0.05029179  0.06078946  -0.03862085  1
  Mo  Mo1  1  1.60046998  1.57774189  1.59383500  1
  Mo  Mo2  1  3.09482707  0.06306484  0.00534314  1
  Mo  Mo3  1  4.70120718  1.64453975  1.58602516  1
  Mo  Mo4  1  6.29659442  -0.03084177  0.05505796  1
  Mo  Mo5  1  7.93899396  1.57038350  1.60316781  1
  Mo  Mo6  1  9.40757918  0.03731072  -0.00022988  1
  Mo  Mo7  1  11.05363845  1.56491809  1.62409988  1
  Mo  Mo8  1  12.53847206  0.06432984  0.05671555  1
  Mo  Mo9  1  14.20928607  1.62093830  1.51409327  1
  Mo  Mo10  1  15.77371186  -0.05234441  0.03224671  1
  Mo  Mo11  1  17.35766287  1.55432645  1.54782032  1
