# generated using pymatgen
data_Mo
_symmetry_space_group_name_H-M   'P 1'
_cell_length_a   19.15156829
_cell_length_b   3.16349647
_cell_length_c   3.16349647
_cell_angle_alpha   90.00000000
_cell_angle_beta   89.05353318
_cell_angle_gamma   82.40639892
_symmetry_Int_Tables_number   1
_chemical_formula_structural   Mo
_chemical_formula_sum   Mo12
_cell_volume   189.95612965
_cell_formula_units_Z   12
loop_
 _symmetry_equiv_pos_site_id
 _symmetry_equiv_pos_as_xyz
  1  'x, y, z'
loop_
 _atom_site_type_symbol
 _atom_site_label
 _atom_site_symmetry_multiplicity
 _atom_site_fract_x
 _atom_site_fract_y
 _atom_site_fract_z
 _atom_site_occupancy
  Mo  Mo0  1  -0.01650160  -0.01326346  0.00322634  1
  Mo  Mo1  1  1.55027631  1.57305099  1.55138357  1
  Mo  Mo2  1  3.13257785  0.07357878  -0.02807312  1
  Mo  Mo3  1  4.74182142  1.59320398  1.57652087  1
  Mo  Mo4  1  6.28789332  -0.03655516  0.04772088  1
  Mo  Mo5  1  7.89515920  1.51178002  1.58378200  1
  Mo  Mo6  1  9.46773455  -0.02787283  -0.03720428  1
  Mo  Mo7  1  11.13328893  1.66042271  1.56443623  1
  Mo  Mo8  1  12.64863256  -0.00833778  -0.03051002  1
  Mo  Mo9  1  14.23732439  1.60608852  1.57125164  1
  Mo  Mo10  1  15.83806291  0.02732140  0.04378290  1
  Mo  Mo11  1  17.39556582  1.56517058  1.57300252  1
