# generated using pymatgen
data_Mo
_symmetry_space_group_name_H-M   'P 1'
_cell_length_a   19.15940498
_cell_length_b   3.16349647
_cell_length_c   3.16349647
_cell_angle_alpha   90.00000000
_cell_angle_beta   88.10758261
_cell_angle_gamma   82.40952320
_symmetry_Int_Tables_number   1
_chemical_formula_structural   Mo
_chemical_formula_sum   Mo12
_cell_volume   189.95612965
_cell_formula_units_Z   12
loop_
 _symmetry_equiv_pos_site_id
 _symmetry_equiv_pos_as_xyz
  1  'x, y, z'
loop_
 _atom_site_type_symbol
 _atom_site_label
 _atom_site_symmetry_multiplicity
 _atom_site_fract_x
 _atom_site_fract_y
 _atom_site_fract_z
 _atom_site_occupancy
  Mo  Mo0  1  -0.01388117  0.03913777  0.02311268  1
  Mo  Mo1  1  1.58454458  1.61268327  1.60490213  1
  Mo  Mo2  1  3.22205335  0.06617157  -0.01039123  1
  Mo  Mo3  1  4.71784491  1.55409991  1.65895021  1
  Mo  Mo4  1  6.39882346  0.01815496  -0.02286956  1
  Mo  Mo5  1  7.91328397  1.64196778  1.59571841  1
  Mo  Mo6  1  9.48695109  0.03648207  0.02011767  1
  Mo  Mo7  1  11.03980115  1.59723105  1.56484061  1
  Mo  Mo8  1  12.65556233  -0.02100566  -0.02030302  1
  Mo  Mo9  1  14.20039266  1.62502064  1.60853991  1
  Mo  Mo10  1  15.77501791  0.04846152  0.13382917  1
  Mo  Mo11  1  17.36611841  1.56820708  1.50780282  1
