# generated using pymatgen
data_Mo
_symmetry_space_group_name_H-M   'P 1'
_cell_length_a   19.31547114
_cell_length_b   3.16349647
_cell_length_c   3.16349647
_cell_angle_alpha   90.00000000
_cell_angle_beta   82.47121005
_cell_angle_gamma   82.47121005
_symmetry_Int_Tables_number   1
_chemical_formula_structural   Mo
_chemical_formula_sum   Mo12
_cell_volume   189.95612965
_cell_formula_units_Z   12
loop_
 _symmetry_equiv_pos_site_id
 _symmetry_equiv_pos_as_xyz
  1  'x, y, z'
loop_
 _atom_site_type_symbol
 _atom_site_label
 _atom_site_symmetry_multiplicity
 _atom_site_fract_x
 _atom_site_fract_y
 _atom_site_fract_z
 _atom_site_occupancy
  Mo  Mo0  1  -0.01268595  -0.06377643  -0.06108040  1
  Mo  Mo1  1  1.55905417  1.57312545  1.59188870  1
  Mo  Mo2  1  3.15755044  0.08000129  -0.00385067  1
  Mo  Mo3  1  4.76204248  1.57277798  1.55636693  1
  Mo  Mo4  1  6.32634497  0.04154537  -0.04316321  1
  Mo  Mo5  1  7.82097592  1.54390289  1.61488903  1
  Mo  Mo6  1  9.45069497  0.01366506  0.06151059  1
  Mo  Mo7  1  11.09969330  1.50035161  1.59505537  1
  Mo  Mo8  1  12.62846470  -0.00885229  -0.04895186  1
  Mo  Mo9  1  14.24392402  1.61442744  1.56210260  1
  Mo  Mo10  1  15.76143188  -0.04839284  0.06900108  1
  Mo  Mo11  1  17.39100321  1.55257748  1.61254919  1
