# generated using pymatgen
data_Mo
_symmetry_space_group_name_H-M   'P 1'
_cell_length_a   19.35946115
_cell_length_b   3.16349647
_cell_length_c   3.16349647
_cell_angle_alpha   90.00000000
_cell_angle_beta   81.54298026
_cell_angle_gamma   82.48841633
_symmetry_Int_Tables_number   1
_chemical_formula_structural   Mo
_chemical_formula_sum   Mo12
_cell_volume   189.95612965
_cell_formula_units_Z   12
loop_
 _symmetry_equiv_pos_site_id
 _symmetry_equiv_pos_as_xyz
  1  'x, y, z'
loop_
 _atom_site_type_symbol
 _atom_site_label
 _atom_site_symmetry_multiplicity
 _atom_site_fract_x
 _atom_site_fract_y
 _atom_site_fract_z
 _atom_site_occupancy
  Mo  Mo0  1  0.00970126  -0.02973291  -0.06211322  1
  Mo  Mo1  1  1.56327740  1.56774103  1.53076260  1
  Mo  Mo2  1  3.17500657  0.03899156  0.01901477  1
  Mo  Mo3  1  4.76318102  1.61168506  1.56143455  1
  Mo  Mo4  1  6.29891377  -0.01688195  -0.00923684  1
  Mo  Mo5  1  7.98095862  1.49840623  1.62296493  1
  Mo  Mo6  1  9.43343047  -0.01106965  0.00236786  1
  Mo  Mo7  1  11.02018494  1.58169706  1.63192043  1
  Mo  Mo8  1  12.64657276  0.05689132  -0.03147490  1
  Mo  Mo9  1  14.22388821  1.62002049  1.53915952  1
  Mo  Mo10  1  15.76952140  0.02562351  0.00226472  1
  Mo  Mo11  1  17.45566906  1.53627486  1.59033486  1
