# generated using pymatgen
data_Mo
_symmetry_space_group_name_H-M   'P 1'
_cell_length_a   19.19332701
_cell_length_b   3.16349647
_cell_length_c   3.16349647
_cell_angle_alpha   90.00000000
_cell_angle_beta   90.00000000
_cell_angle_gamma   81.46923439
_symmetry_Int_Tables_number   1
_chemical_formula_structural   Mo
_chemical_formula_sum   Mo12
_cell_volume   189.95612965
_cell_formula_units_Z   12
loop_
 _symmetry_equiv_pos_site_id
 _symmetry_equiv_pos_as_xyz
  1  'x, y, z'
loop_
 _atom_site_type_symbol
 _atom_site_label
 _atom_site_symmetry_multiplicity
 _atom_site_fract_x
 _atom_site_fract_y
 _atom_site_fract_z
 _atom_site_occupancy
  Mo  Mo0  1  -0.07518535  -0.01645525  -0.03047722  1
  Mo  Mo1  1  1.54498079  1.52518833  1.61378627  1
  Mo  Mo2  1  3.20920526  0.04652706  -0.03190886  1
  Mo  Mo3  1  4.77398931  1.58385638  1.53474009  1
  Mo  Mo4  1  6.30009148  -0.00661351  0.01859745  1
  Mo  Mo5  1  7.92201856  1.54794362  1.58448086  1
  Mo  Mo6  1  9.49122872  0.05233999  0.04634190  1
  Mo  Mo7  1  11.05869727  1.58398554  1.59073508  1
  Mo  Mo8  1  12.63904138  0.02201420  -0.05454299  1
  Mo  Mo9  1  14.27482970  1.59323445  1.51819739  1
  Mo  Mo10  1  15.80407261  -0.03249713  0.04295681  1
  Mo  Mo11  1  17.41630527  1.53209260  1.55460868  1
