# generated using pymatgen
data_Mo
_symmetry_space_group_name_H-M   'P 1'
_cell_length_a   19.19593391
_cell_length_b   3.16349647
_cell_length_c   3.16349647
_cell_angle_alpha   90.00000000
_cell_angle_beta   89.05572085
_cell_angle_gamma   81.47040155
_symmetry_Int_Tables_number   1
_chemical_formula_structural   Mo
_chemical_formula_sum   Mo12
_cell_volume   189.95612965
_cell_formula_units_Z   12
loop_
 _symmetry_equiv_pos_site_id
 _symmetry_equiv_pos_as_xyz
  1  'x, y, z'
loop_
 _atom_site_type_symbol
 _atom_site_label
 _atom_site_symmetry_multiplicity
 _atom_site_fract_x
 _atom_site_fract_y
 _atom_site_fract_z
 _atom_site_occupancy
  Mo  Mo0  1  0.02691188  0.06051868  -0.02036559  1
  Mo  Mo1  1  1.62751005  1.55824589  1.55116202  1
  Mo  Mo2  1  3.15016774  0.00370009  -0.05480753  1
  Mo  Mo3  1  4.75431265  1.55826785  1.53014798  1
  Mo  Mo4  1  6.26341233  -0.01183276  -0.05775190  1
  Mo  Mo5  1  7.90078944  1.55975660  1.65966780  1
  Mo  Mo6  1  9.42266063  0.03634182  -0.02752892  1
  Mo  Mo7  1  11.04551919  1.60341245  1.67076126  1
  Mo  Mo8  1  12.66022282  -0.06446124  -0.01973227  1
  Mo  Mo9  1  14.19506565  1.49433268  1.57169654  1
  Mo  Mo10  1  15.77521113  0.07331481  -0.02064038  1
  Mo  Mo11  1  17.35564959  1.63805334  1.57843745  1
