# generated using pymatgen
data_Mo
_symmetry_space_group_name_H-M   'P 1'
_cell_length_a   19.20375250
_cell_length_b   3.16349647
_cell_length_c   3.16349647
_cell_angle_alpha   90.00000000
_cell_angle_beta   88.11195438
_cell_angle_gamma   81.47390014
_symmetry_Int_Tables_number   1
_chemical_formula_structural   Mo
_chemical_formula_sum   Mo12
_cell_volume   189.95612965
_cell_formula_units_Z   12
loop_
 _symmetry_equiv_pos_site_id
 _symmetry_equiv_pos_as_xyz
  1  'x, y, z'
loop_
 _atom_site_type_symbol
 _atom_site_label
 _atom_site_symmetry_multiplicity
 _atom_site_fract_x
 _atom_site_fract_y
 _atom_site_fract_z
 _atom_site_occupancy
  Mo  Mo0  1  -0.00216690  0.02682812  0.01379175  1
  Mo  Mo1  1  1.53001246  1.64216398  1.62112951  1
  Mo  Mo2  1  3.17454433  -0.01784764  0.03827294  1
  Mo  Mo3  1  4.71231853  1.60302018  1.63062099  1
  Mo  Mo4  1  6.34766551  -0.00252064  -0.00138429  1
  Mo  Mo5  1  7.91055405  1.63935958  1.65708353  1
  Mo  Mo6  1  9.50652451  0.00765589  -0.01208278  1
  Mo  Mo7  1  11.03803064  1.57111154  1.49942480  1
  Mo  Mo8  1  12.62573248  0.02472909  0.04859824  1
  Mo  Mo9  1  14.16744305  1.56599887  1.63242686  1
  Mo  Mo10  1  15.81709769  -0.00549213  0.01767158  1
  Mo  Mo11  1  17.31778564  1.57275406  1.64651823  1
