# generated using pymatgen
data_Mo
_symmetry_space_group_name_H-M   'P 1'
_cell_length_a   19.21677641
_cell_length_b   3.16349647
_cell_length_c   3.16349647
_cell_angle_alpha   90.00000000
_cell_angle_beta   87.16921162
_cell_angle_gamma   81.47972158
_symmetry_Int_Tables_number   1
_chemical_formula_structural   Mo
_chemical_formula_sum   Mo12
_cell_volume   189.95612965
_cell_formula_units_Z   12
loop_
 _symmetry_equiv_pos_site_id
 _symmetry_equiv_pos_as_xyz
  1  'x, y, z'
loop_
 _atom_site_type_symbol
 _atom_site_label
 _atom_site_symmetry_multiplicity
 _atom_site_fract_x
 _atom_site_fract_y
 _atom_site_fract_z
 _atom_site_occupancy
  Mo  Mo0  1  0.04013252  -0.01285583  0.00508255  1
  Mo  Mo1  1  1.59287932  1.63302190  1.64641251  1
  Mo  Mo2  1  3.14482919  -0.04970883  -0.01036131  1
  Mo  Mo3  1  4.73937424  1.56264360  1.51377657  1
  Mo  Mo4  1  6.37083261  -0.00199288  0.10113403  1
  Mo  Mo5  1  7.95686817  1.65889657  1.56992336  1
  Mo  Mo6  1  9.54304345  0.00078522  0.01935286  1
  Mo  Mo7  1  10.99796364  1.59820680  1.58739475  1
  Mo  Mo8  1  12.65214790  0.01695539  0.02571622  1
  Mo  Mo9  1  14.26943696  1.58930335  1.60957141  1
  Mo  Mo10  1  15.79076009  -0.02991364  0.06283354  1
  Mo  Mo11  1  17.37542812  1.66555500  1.53322973  1
