# generated using pymatgen
data_Mo
_symmetry_space_group_name_H-M   'P 1'
_cell_length_a   19.32065163
_cell_length_b   3.16349647
_cell_length_c   3.16349647
_cell_angle_alpha   90.00000000
_cell_angle_beta   83.41854770
_cell_angle_gamma   81.52586776
_symmetry_Int_Tables_number   1
_chemical_formula_structural   Mo
_chemical_formula_sum   Mo12
_cell_volume   189.95612965
_cell_formula_units_Z   12
loop_
 _symmetry_equiv_pos_site_id
 _symmetry_equiv_pos_as_xyz
  1  'x, y, z'
loop_
 _atom_site_type_symbol
 _atom_site_label
 _atom_site_symmetry_multiplicity
 _atom_site_fract_x
 _atom_site_fract_y
 _atom_site_fract_z
 _atom_site_occupancy
  Mo  Mo0  1  0.05589315  0.00879755  -0.00578201  1
  Mo  Mo1  1  1.58664986  1.60585972  1.67814092  1
  Mo  Mo2  1  3.08724200  -0.09638302  0.02571356  1
  Mo  Mo3  1  4.75326164  1.57551322  1.61246496  1
  Mo  Mo4  1  6.27297886  0.02791864  0.04190774  1
  Mo  Mo5  1  7.91947972  1.54312167  1.62343941  1
  Mo  Mo6  1  9.53899592  -0.00205614  -0.04409387  1
  Mo  Mo7  1  11.08541884  1.52756891  1.58627509  1
  Mo  Mo8  1  12.67626655  0.07790234  0.08209976  1
  Mo  Mo9  1  14.25884971  1.62157444  1.60314413  1
  Mo  Mo10  1  15.78071662  -0.10589205  0.03130295  1
  Mo  Mo11  1  17.41903823  1.59207363  1.54620854  1
