# generated using pymatgen
data_Mo
_symmetry_space_group_name_H-M   'P 1'
_cell_length_a   19.35946115
_cell_length_b   3.16349647
_cell_length_c   3.16349647
_cell_angle_alpha   90.00000000
_cell_angle_beta   82.48841633
_cell_angle_gamma   81.54298026
_symmetry_Int_Tables_number   1
_chemical_formula_structural   Mo
_chemical_formula_sum   Mo12
_cell_volume   189.95612965
_cell_formula_units_Z   12
loop_
 _symmetry_equiv_pos_site_id
 _symmetry_equiv_pos_as_xyz
  1  'x, y, z'
loop_
 _atom_site_type_symbol
 _atom_site_label
 _atom_site_symmetry_multiplicity
 _atom_site_fract_x
 _atom_site_fract_y
 _atom_site_fract_z
 _atom_site_occupancy
  Mo  Mo0  1  -0.02417198  -0.00501848  -0.02723784  1
  Mo  Mo1  1  1.61869821  1.50836661  1.56316800  1
  Mo  Mo2  1  3.25470583  0.01944787  0.02825879  1
  Mo  Mo3  1  4.78724036  1.58389959  1.59201121  1
  Mo  Mo4  1  6.35039840  0.03522046  -0.04046279  1
  Mo  Mo5  1  7.90342204  1.56431452  1.60138045  1
  Mo  Mo6  1  9.48257161  -0.05072669  0.01167701  1
  Mo  Mo7  1  11.07657235  1.58301051  1.63238166  1
  Mo  Mo8  1  12.69661466  0.01654380  0.06169556  1
  Mo  Mo9  1  14.22334554  1.52687358  1.63631131  1
  Mo  Mo10  1  15.81858489  -0.01274746  -0.03366587  1
  Mo  Mo11  1  17.38198610  1.52855278  1.59007039  1
