# generated using pymatgen
data_Mo
_symmetry_space_group_name_H-M   'P 1'
_cell_length_a   19.40335143
_cell_length_b   3.16349647
_cell_length_c   3.16349647
_cell_angle_alpha   90.00000000
_cell_angle_beta   81.56224966
_cell_angle_gamma   81.56224966
_symmetry_Int_Tables_number   1
_chemical_formula_structural   Mo
_chemical_formula_sum   Mo12
_cell_volume   189.95612965
_cell_formula_units_Z   12
loop_
 _symmetry_equiv_pos_site_id
 _symmetry_equiv_pos_as_xyz
  1  'x, y, z'
loop_
 _atom_site_type_symbol
 _atom_site_label
 _atom_site_symmetry_multiplicity
 _atom_site_fract_x
 _atom_site_fract_y
 _atom_site_fract_z
 _atom_site_occupancy
  Mo  Mo0  1  -0.01077059  0.00417150  0.00996754  1
  Mo  Mo1  1  1.54493808  1.60431270  1.54036346  1
  Mo  Mo2  1  3.15738229  0.03142516  -0.04878641  1
  Mo  Mo3  1  4.70752716  1.55908390  1.54287119  1
  Mo  Mo4  1  6.29633247  -0.00134124  -0.04109349  1
  Mo  Mo5  1  7.95419396  1.55748751  1.64021065  1
  Mo  Mo6  1  9.54987735  0.02813379  -0.07394217  1
  Mo  Mo7  1  11.01770580  1.56861456  1.52146068  1
  Mo  Mo8  1  12.70173164  -0.07251500  0.01071777  1
  Mo  Mo9  1  14.21797260  1.62608247  1.52681142  1
  Mo  Mo10  1  15.85788218  0.00891533  -0.02564420  1
  Mo  Mo11  1  17.42555038  1.63319032  1.54612721  1
