# generated using pymatgen
data_Mo
_symmetry_space_group_name_H-M   'P 1'
_cell_length_a   13.43648342
_cell_length_b   4.47385961
_cell_length_c   3.16349647
_cell_angle_alpha   90.00000000
_cell_angle_beta   87.30104909
_cell_angle_gamma   90.00000000
_symmetry_Int_Tables_number   1
_chemical_formula_structural   Mo
_chemical_formula_sum   Mo12
_cell_volume   189.95612993
_cell_formula_units_Z   12
loop_
 _symmetry_equiv_pos_site_id
 _symmetry_equiv_pos_as_xyz
  1  'x, y, z'
loop_
 _atom_site_type_symbol
 _atom_site_label
 _atom_site_symmetry_multiplicity
 _atom_site_fract_x
 _atom_site_fract_y
 _atom_site_fract_z
 _atom_site_occupancy
  Mo  Mo0  1  0.01024095  -0.03614498  -0.01505918  1
  Mo  Mo1  1  2.21564757  2.27106924  -0.01643208  1
  Mo  Mo2  1  2.25675080  0.07997809  1.63199263  1
  Mo  Mo3  1  -0.01747466  2.22314637  1.59986365  1
  Mo  Mo4  1  4.40746995  -0.03429906  0.01961102  1
  Mo  Mo5  1  6.70584345  2.31392142  -0.02460546  1
  Mo  Mo6  1  6.66913972  -0.03539445  1.58230685  1
  Mo  Mo7  1  4.46746082  2.32566723  1.56586895  1
  Mo  Mo8  1  8.94988536  0.03517819  -0.00429613  1
  Mo  Mo9  1  11.20675449  2.25264162  0.03330917  1
  Mo  Mo10  1  11.12863498  0.03214122  1.57624645  1
  Mo  Mo11  1  8.95516634  2.22154616  1.64775539  1
