# generated using pymatgen
data_Mo
_symmetry_space_group_name_H-M   'P 1'
_cell_length_a   13.45509094
_cell_length_b   4.47385961
_cell_length_c   3.16349647
_cell_angle_alpha   90.00000000
_cell_angle_beta   85.95530877
_cell_angle_gamma   90.00000000
_symmetry_Int_Tables_number   1
_chemical_formula_structural   Mo
_chemical_formula_sum   Mo12
_cell_volume   189.95612993
_cell_formula_units_Z   12
loop_
 _symmetry_equiv_pos_site_id
 _symmetry_equiv_pos_as_xyz
  1  'x, y, z'
loop_
 _atom_site_type_symbol
 _atom_site_label
 _atom_site_symmetry_multiplicity
 _atom_site_fract_x
 _atom_site_fract_y
 _atom_site_fract_z
 _atom_site_occupancy
  Mo  Mo0  1  -0.02986407  0.05237279  0.04957911  1
  Mo  Mo1  1  2.17307638  2.17851801  -0.06823605  1
  Mo  Mo2  1  2.31088365  0.00348479  1.57966653  1
  Mo  Mo3  1  0.02210008  2.19859968  1.57457393  1
  Mo  Mo4  1  4.42677632  0.02408837  -0.03786251  1
  Mo  Mo5  1  6.72514648  2.27912740  -0.00466103  1
  Mo  Mo6  1  6.74363943  -0.04813382  1.53438268  1
  Mo  Mo7  1  4.48260747  2.22845857  1.52559011  1
  Mo  Mo8  1  8.92850327  0.04781348  -0.02808118  1
  Mo  Mo9  1  11.18565089  2.22136832  0.00768426  1
  Mo  Mo10  1  11.19854597  0.02352111  1.60245333  1
  Mo  Mo11  1  8.98055165  2.25388680  1.58953199  1
