# generated using pymatgen
data_Mo
_symmetry_space_group_name_H-M   'P 1'
_cell_length_a   13.48109832
_cell_length_b   4.47385961
_cell_length_c   3.16349647
_cell_angle_alpha   90.00000000
_cell_angle_beta   84.61402290
_cell_angle_gamma   90.00000000
_symmetry_Int_Tables_number   1
_chemical_formula_structural   Mo
_chemical_formula_sum   Mo12
_cell_volume   189.95612993
_cell_formula_units_Z   12
loop_
 _symmetry_equiv_pos_site_id
 _symmetry_equiv_pos_as_xyz
  1  'x, y, z'
loop_
 _atom_site_type_symbol
 _atom_site_label
 _atom_site_symmetry_multiplicity
 _atom_site_fract_x
 _atom_site_fract_y
 _atom_site_fract_z
 _atom_site_occupancy
  Mo  Mo0  1  0.00104935  0.01035720  -0.01572132  1
  Mo  Mo1  1  2.22880145  2.18633644  -0.10331980  1
  Mo  Mo2  1  2.24845510  -0.03474544  1.59742686  1
  Mo  Mo3  1  0.03720425  2.23630577  1.59207655  1
  Mo  Mo4  1  4.41524212  0.03190557  -0.06965570  1
  Mo  Mo5  1  6.69109320  2.19680146  0.00100438  1
  Mo  Mo6  1  6.70595513  -0.06154413  1.55760027  1
  Mo  Mo7  1  4.41840518  2.21195622  1.59498238  1
  Mo  Mo8  1  8.88639418  0.06645479  -0.01987500  1
  Mo  Mo9  1  11.21143024  2.32637263  -0.06581674  1
  Mo  Mo10  1  11.16577459  -0.01201204  1.54470627  1
  Mo  Mo11  1  8.99192108  2.22938304  1.63261122  1
