# generated using pymatgen
data_Mo
_symmetry_space_group_name_H-M   'P 1'
_cell_length_a   13.51446284
_cell_length_b   4.47385961
_cell_length_c   3.16349647
_cell_angle_alpha   90.00000000
_cell_angle_beta   83.27863066
_cell_angle_gamma   90.00000000
_symmetry_Int_Tables_number   1
_chemical_formula_structural   Mo
_chemical_formula_sum   Mo12
_cell_volume   189.95612993
_cell_formula_units_Z   12
loop_
 _symmetry_equiv_pos_site_id
 _symmetry_equiv_pos_as_xyz
  1  'x, y, z'
loop_
 _atom_site_type_symbol
 _atom_site_label
 _atom_site_symmetry_multiplicity
 _atom_site_fract_x
 _atom_site_fract_y
 _atom_site_fract_z
 _atom_site_occupancy
  Mo  Mo0  1  0.02326995  0.04898454  0.03270025  1
  Mo  Mo1  1  2.20513159  2.25332381  -0.00700858  1
  Mo  Mo2  1  2.23401857  -0.02250570  1.57802961  1
  Mo  Mo3  1  0.03410871  2.20262526  1.58240395  1
  Mo  Mo4  1  4.53612935  -0.01866448  -0.01560813  1
  Mo  Mo5  1  6.74328145  2.23996848  -0.00398231  1
  Mo  Mo6  1  6.77539245  -0.05317585  1.57637184  1
  Mo  Mo7  1  4.45482828  2.17347189  1.54717569  1
  Mo  Mo8  1  8.94641731  -0.06077062  -0.00495728  1
  Mo  Mo9  1  11.17422708  2.27653100  0.01263382  1
  Mo  Mo10  1  11.18312679  -0.00271334  1.56415179  1
  Mo  Mo11  1  8.92864985  2.23897937  1.54296018  1
