# generated using pymatgen
data_Mo
_symmetry_space_group_name_H-M   'P 1'
_cell_length_a   13.55513017
_cell_length_b   4.47385961
_cell_length_c   3.16349647
_cell_angle_alpha   90.00000000
_cell_angle_beta   81.95053303
_cell_angle_gamma   90.00000000
_symmetry_Int_Tables_number   1
_chemical_formula_structural   Mo
_chemical_formula_sum   Mo12
_cell_volume   189.95612993
_cell_formula_units_Z   12
loop_
 _symmetry_equiv_pos_site_id
 _symmetry_equiv_pos_as_xyz
  1  'x, y, z'
loop_
 _atom_site_type_symbol
 _atom_site_label
 _atom_site_symmetry_multiplicity
 _atom_site_fract_x
 _atom_site_fract_y
 _atom_site_fract_z
 _atom_site_occupancy
  Mo  Mo0  1  -0.03373904  0.05195698  0.03677068  1
  Mo  Mo1  1  2.26240932  2.19496588  0.07152598  1
  Mo  Mo2  1  2.19663492  0.03276880  1.57002524  1
  Mo  Mo3  1  -0.02357212  2.18147877  1.62567929  1
  Mo  Mo4  1  4.43676539  -0.03752457  0.01737088  1
  Mo  Mo5  1  6.74241774  2.26555726  0.00348774  1
  Mo  Mo6  1  6.65816234  0.00206068  1.50874880  1
  Mo  Mo7  1  4.48688944  2.25587745  1.58844937  1
  Mo  Mo8  1  8.91340720  0.03610373  0.01682513  1
  Mo  Mo9  1  11.09662500  2.17111532  0.01278628  1
  Mo  Mo10  1  11.16624101  -0.04299889  1.56926436  1
  Mo  Mo11  1  8.90722281  2.25679991  1.58055679  1
