# generated using pymatgen
data_Mo
_symmetry_space_group_name_H-M   'P 1'
_cell_length_a   13.60303482
_cell_length_b   4.47385961
_cell_length_c   3.16349647
_cell_angle_alpha   90.00000000
_cell_angle_beta   80.63108442
_cell_angle_gamma   90.00000000
_symmetry_Int_Tables_number   1
_chemical_formula_structural   Mo
_chemical_formula_sum   Mo12
_cell_volume   189.95612993
_cell_formula_units_Z   12
loop_
 _symmetry_equiv_pos_site_id
 _symmetry_equiv_pos_as_xyz
  1  'x, y, z'
loop_
 _atom_site_type_symbol
 _atom_site_label
 _atom_site_symmetry_multiplicity
 _atom_site_fract_x
 _atom_site_fract_y
 _atom_site_fract_z
 _atom_site_occupancy
  Mo  Mo0  1  -0.03953276  -0.04230862  -0.02538658  1
  Mo  Mo1  1  2.27916633  2.23066730  0.04351524  1
  Mo  Mo2  1  2.15437935  0.02787549  1.64837566  1
  Mo  Mo3  1  -0.01580839  2.32938474  1.54197399  1
  Mo  Mo4  1  4.45161332  -0.07970898  -0.01456408  1
  Mo  Mo5  1  6.66080633  2.31813013  0.02368426  1
  Mo  Mo6  1  6.77280778  0.07343582  1.53762121  1
  Mo  Mo7  1  4.41277788  2.30289165  1.54556829  1
  Mo  Mo8  1  8.96285967  -0.01855034  0.00418078  1
  Mo  Mo9  1  11.16762967  2.25420319  -0.02210545  1
  Mo  Mo10  1  11.21894335  -0.02986981  1.61900314  1
  Mo  Mo11  1  8.89551407  2.21811636  1.54286823  1
