# generated using pymatgen
data_Mo
_symmetry_space_group_name_H-M   'P 1'
_cell_length_a   13.65810063
_cell_length_b   4.47385961
_cell_length_c   3.16349647
_cell_angle_alpha   90.00000000
_cell_angle_beta   79.32158508
_cell_angle_gamma   90.00000000
_symmetry_Int_Tables_number   1
_chemical_formula_structural   Mo
_chemical_formula_sum   Mo12
_cell_volume   189.95612993
_cell_formula_units_Z   12
loop_
 _symmetry_equiv_pos_site_id
 _symmetry_equiv_pos_as_xyz
  1  'x, y, z'
loop_
 _atom_site_type_symbol
 _atom_site_label
 _atom_site_symmetry_multiplicity
 _atom_site_fract_x
 _atom_site_fract_y
 _atom_site_fract_z
 _atom_site_occupancy
  Mo  Mo0  1  -0.04150328  -0.03265869  0.02646359  1
  Mo  Mo1  1  2.30944510  2.17957475  0.00930232  1
  Mo  Mo2  1  2.25044194  0.00919910  1.58135332  1
  Mo  Mo3  1  0.07176816  2.29135105  1.57134963  1
  Mo  Mo4  1  4.45605111  0.02267183  -0.04014502  1
  Mo  Mo5  1  6.66587274  2.27908500  0.04099728  1
  Mo  Mo6  1  6.71645362  0.02358838  1.54153886  1
  Mo  Mo7  1  4.40036009  2.22777883  1.59674341  1
  Mo  Mo8  1  8.92901908  -0.00869299  0.01376283  1
  Mo  Mo9  1  11.17632009  2.25311808  0.04054824  1
  Mo  Mo10  1  11.14304502  0.06448332  1.50896880  1
  Mo  Mo11  1  8.99686147  2.14802806  1.56914190  1
