# generated using pymatgen
data_Mo
_symmetry_space_group_name_H-M   'P 1'
_cell_length_a   13.72024138
_cell_length_b   4.47385961
_cell_length_c   3.16349647
_cell_angle_alpha   90.00000000
_cell_angle_beta   78.02327419
_cell_angle_gamma   90.00000000
_symmetry_Int_Tables_number   1
_chemical_formula_structural   Mo
_chemical_formula_sum   Mo12
_cell_volume   189.95612993
_cell_formula_units_Z   12
loop_
 _symmetry_equiv_pos_site_id
 _symmetry_equiv_pos_as_xyz
  1  'x, y, z'
loop_
 _atom_site_type_symbol
 _atom_site_label
 _atom_site_symmetry_multiplicity
 _atom_site_fract_x
 _atom_site_fract_y
 _atom_site_fract_z
 _atom_site_occupancy
  Mo  Mo0  1  -0.06208040  -0.00123247  -0.02470436  1
  Mo  Mo1  1  2.17865978  2.29310570  -0.01896734  1
  Mo  Mo2  1  2.20587794  0.04258183  1.53073075  1
  Mo  Mo3  1  -0.05281528  2.24195629  1.61605160  1
  Mo  Mo4  1  4.50158010  -0.01331106  -0.03968772  1
  Mo  Mo5  1  6.77440381  2.36878409  0.03929958  1
  Mo  Mo6  1  6.71571757  0.02955258  1.56607425  1
  Mo  Mo7  1  4.47975257  2.22052858  1.57535400  1
  Mo  Mo8  1  8.95327065  0.01135773  -0.01119033  1
  Mo  Mo9  1  11.25271944  2.23097116  0.02746465  1
  Mo  Mo10  1  11.22822320  0.05325014  1.52728172  1
  Mo  Mo11  1  8.96707231  2.26690953  1.59620909  1
