# generated using pymatgen
data_Mo
_symmetry_space_group_name_H-M   'P 1'
_cell_length_a   13.42903320
_cell_length_b   4.47385961
_cell_length_c   3.16349647
_cell_angle_alpha   90.00000000
_cell_angle_beta   90.00000000
_cell_angle_gamma   88.09084758
_symmetry_Int_Tables_number   1
_chemical_formula_structural   Mo
_chemical_formula_sum   Mo12
_cell_volume   189.95612993
_cell_formula_units_Z   12
loop_
 _symmetry_equiv_pos_site_id
 _symmetry_equiv_pos_as_xyz
  1  'x, y, z'
loop_
 _atom_site_type_symbol
 _atom_site_label
 _atom_site_symmetry_multiplicity
 _atom_site_fract_x
 _atom_site_fract_y
 _atom_site_fract_z
 _atom_site_occupancy
  Mo  Mo0  1  -0.01155800  0.00446115  0.04976432  1
  Mo  Mo1  1  2.18278523  2.24090576  -0.00190938  1
  Mo  Mo2  1  2.22275679  -0.04330957  1.56778259  1
  Mo  Mo3  1  0.10298247  2.21681191  1.55850081  1
  Mo  Mo4  1  4.42320789  0.02971162  -0.02221444  1
  Mo  Mo5  1  6.70638105  2.18969025  -0.04011343  1
  Mo  Mo6  1  6.68334246  -0.00340738  1.61448242  1
  Mo  Mo7  1  4.51030468  2.30523658  1.60240758  1
  Mo  Mo8  1  9.02047679  0.04306502  0.01466614  1
  Mo  Mo9  1  11.19636631  2.18376740  -0.04151368  1
  Mo  Mo10  1  11.11951934  0.05283857  1.59835831  1
  Mo  Mo11  1  8.97627553  2.27680179  1.57361088  1
