# generated using pymatgen
data_Mo
_symmetry_space_group_name_H-M   'P 1'
_cell_length_a   13.44392952
_cell_length_b   4.47385961
_cell_length_c   3.16349647
_cell_angle_alpha   90.00000000
_cell_angle_beta   87.30254505
_cell_angle_gamma   88.09296377
_symmetry_Int_Tables_number   1
_chemical_formula_structural   Mo
_chemical_formula_sum   Mo12
_cell_volume   189.95612993
_cell_formula_units_Z   12
loop_
 _symmetry_equiv_pos_site_id
 _symmetry_equiv_pos_as_xyz
  1  'x, y, z'
loop_
 _atom_site_type_symbol
 _atom_site_label
 _atom_site_symmetry_multiplicity
 _atom_site_fract_x
 _atom_site_fract_y
 _atom_site_fract_z
 _atom_site_occupancy
  Mo  Mo0  1  0.00819057  0.04642095  -0.08246235  1
  Mo  Mo1  1  2.21175761  2.27660162  0.09527008  1
  Mo  Mo2  1  2.21539620  0.02994725  1.49619401  1
  Mo  Mo3  1  -0.01215230  2.22093991  1.55739780  1
  Mo  Mo4  1  4.46894966  -0.02101188  0.03625117  1
  Mo  Mo5  1  6.62875479  2.30592267  -0.04202136  1
  Mo  Mo6  1  6.78264416  0.07318366  1.67715857  1
  Mo  Mo7  1  4.49545962  2.22787298  1.57091027  1
  Mo  Mo8  1  8.99143906  -0.00710229  -0.00890177  1
  Mo  Mo9  1  11.19768572  2.15563286  -0.09311783  1
  Mo  Mo10  1  11.20214218  -0.00276412  1.60340592  1
  Mo  Mo11  1  8.98216344  2.20443341  1.56362242  1
