# generated using pymatgen
data_Mo
_symmetry_space_group_name_H-M   'P 1'
_cell_length_a   13.46252675
_cell_length_b   4.47385961
_cell_length_c   3.16349647
_cell_angle_alpha   90.00000000
_cell_angle_beta   85.95754650
_cell_angle_gamma   88.09559913
_symmetry_Int_Tables_number   1
_chemical_formula_structural   Mo
_chemical_formula_sum   Mo12
_cell_volume   189.95612993
_cell_formula_units_Z   12
loop_
 _symmetry_equiv_pos_site_id
 _symmetry_equiv_pos_as_xyz
  1  'x, y, z'
loop_
 _atom_site_type_symbol
 _atom_site_label
 _atom_site_symmetry_multiplicity
 _atom_site_fract_x
 _atom_site_fract_y
 _atom_site_fract_z
 _atom_site_occupancy
  Mo  Mo0  1  -0.07369233  -0.04300879  0.00312575  1
  Mo  Mo1  1  2.18305397  2.26184184  0.02917867  1
  Mo  Mo2  1  2.17840523  -0.06665849  1.60494465  1
  Mo  Mo3  1  -0.02695357  2.26388712  1.58912974  1
  Mo  Mo4  1  4.42783363  -0.03260677  -0.03594541  1
  Mo  Mo5  1  6.68973515  2.22204763  -0.01437051  1
  Mo  Mo6  1  6.67972159  0.09980227  1.51954009  1
  Mo  Mo7  1  4.46464204  2.23317498  1.62770175  1
  Mo  Mo8  1  8.97256816  -0.03559630  -0.00488137  1
  Mo  Mo9  1  11.23801012  2.22077388  -0.06500191  1
  Mo  Mo10  1  11.17922938  -0.05812783  1.55798053  1
  Mo  Mo11  1  8.92887631  2.21542759  1.56381699  1
