# generated using pymatgen
data_Mo
_symmetry_space_group_name_H-M   'P 1'
_cell_length_a   13.48851979
_cell_length_b   4.47385961
_cell_length_c   3.16349647
_cell_angle_alpha   90.00000000
_cell_angle_beta   84.61699505
_cell_angle_gamma   88.09927036
_symmetry_Int_Tables_number   1
_chemical_formula_structural   Mo
_chemical_formula_sum   Mo12
_cell_volume   189.95612993
_cell_formula_units_Z   12
loop_
 _symmetry_equiv_pos_site_id
 _symmetry_equiv_pos_as_xyz
  1  'x, y, z'
loop_
 _atom_site_type_symbol
 _atom_site_label
 _atom_site_symmetry_multiplicity
 _atom_site_fract_x
 _atom_site_fract_y
 _atom_site_fract_z
 _atom_site_occupancy
  Mo  Mo0  1  -0.06460200  -0.00404959  -0.07200462  1
  Mo  Mo1  1  2.24737978  2.24727232  -0.01516197  1
  Mo  Mo2  1  2.23683871  0.01359156  1.61745917  1
  Mo  Mo3  1  -0.01436678  2.30283340  1.53444214  1
  Mo  Mo4  1  4.54016039  -0.07970913  -0.01901271  1
  Mo  Mo5  1  6.76524863  2.24720133  0.02794388  1
  Mo  Mo6  1  6.74613470  0.02873434  1.52675969  1
  Mo  Mo7  1  4.43433388  2.23018740  1.59320584  1
  Mo  Mo8  1  8.95953803  -0.00746296  -0.01464506  1
  Mo  Mo9  1  11.24236996  2.24565049  0.01770971  1
  Mo  Mo10  1  11.17626985  -0.02016774  1.59766517  1
  Mo  Mo11  1  8.98820214  2.28510908  1.59977892  1
