# generated using pymatgen
data_Mo
_symmetry_space_group_name_H-M   'P 1'
_cell_length_a   13.52186600
_cell_length_b   4.47385961
_cell_length_c   3.16349647
_cell_angle_alpha   90.00000000
_cell_angle_beta   83.28232754
_cell_angle_gamma   88.10395945
_symmetry_Int_Tables_number   1
_chemical_formula_structural   Mo
_chemical_formula_sum   Mo12
_cell_volume   189.95612993
_cell_formula_units_Z   12
loop_
 _symmetry_equiv_pos_site_id
 _symmetry_equiv_pos_as_xyz
  1  'x, y, z'
loop_
 _atom_site_type_symbol
 _atom_site_label
 _atom_site_symmetry_multiplicity
 _atom_site_fract_x
 _atom_site_fract_y
 _atom_site_fract_z
 _atom_site_occupancy
  Mo  Mo0  1  -0.04128383  0.02361937  0.04387141  1
  Mo  Mo1  1  2.21655223  2.22636977  -0.06433445  1
  Mo  Mo2  1  2.22612728  0.03761996  1.55680260  1
  Mo  Mo3  1  -0.01058102  2.26427456  1.66324845  1
  Mo  Mo4  1  4.45549596  0.02736681  0.04010931  1
  Mo  Mo5  1  6.70456253  2.27274042  0.03980490  1
  Mo  Mo6  1  6.73817720  -0.07484155  1.61596266  1
  Mo  Mo7  1  4.51048088  2.24769606  1.58285505  1
  Mo  Mo8  1  8.86069668  0.00536093  -0.02711251  1
  Mo  Mo9  1  11.08827141  2.25368669  -0.02694854  1
  Mo  Mo10  1  11.13928428  0.01132378  1.56017453  1
  Mo  Mo11  1  8.96616089  2.20264655  1.61654290  1
