# generated using pymatgen
data_Mo
_symmetry_space_group_name_H-M   'P 1'
_cell_length_a   13.61038980
_cell_length_b   4.47385961
_cell_length_c   3.16349647
_cell_angle_alpha   90.00000000
_cell_angle_beta   80.63619291
_cell_angle_gamma   88.11629601
_symmetry_Int_Tables_number   1
_chemical_formula_structural   Mo
_chemical_formula_sum   Mo12
_cell_volume   189.95612993
_cell_formula_units_Z   12
loop_
 _symmetry_equiv_pos_site_id
 _symmetry_equiv_pos_as_xyz
  1  'x, y, z'
loop_
 _atom_site_type_symbol
 _atom_site_label
 _atom_site_symmetry_multiplicity
 _atom_site_fract_x
 _atom_site_fract_y
 _atom_site_fract_z
 _atom_site_occupancy
  Mo  Mo0  1  -0.03024488  -0.08361393  -0.03221710  1
  Mo  Mo1  1  2.23663072  2.16911986  0.02313182  1
  Mo  Mo2  1  2.19837130  -0.05891935  1.56092645  1
  Mo  Mo3  1  0.05041162  2.24378945  1.53292440  1
  Mo  Mo4  1  4.44557842  0.03959394  -0.05228578  1
  Mo  Mo5  1  6.75005784  2.21808775  -0.02959141  1
  Mo  Mo6  1  6.77147003  0.08390294  1.55746872  1
  Mo  Mo7  1  4.48851510  2.17274509  1.58573244  1
  Mo  Mo8  1  8.85511816  0.00401118  -0.04398368  1
  Mo  Mo9  1  11.10910901  2.31008266  0.05768757  1
  Mo  Mo10  1  11.23248797  0.00587957  1.56406431  1
  Mo  Mo11  1  8.93857973  2.19084285  1.60788891  1
