# generated using pymatgen
data_Mo
_symmetry_space_group_name_H-M   'P 1'
_cell_length_a   13.66542597
_cell_length_b   4.47385961
_cell_length_c   3.16349647
_cell_angle_alpha   90.00000000
_cell_angle_beta   79.32737639
_cell_angle_gamma   88.12388516
_symmetry_Int_Tables_number   1
_chemical_formula_structural   Mo
_chemical_formula_sum   Mo12
_cell_volume   189.95612993
_cell_formula_units_Z   12
loop_
 _symmetry_equiv_pos_site_id
 _symmetry_equiv_pos_as_xyz
  1  'x, y, z'
loop_
 _atom_site_type_symbol
 _atom_site_label
 _atom_site_symmetry_multiplicity
 _atom_site_fract_x
 _atom_site_fract_y
 _atom_site_fract_z
 _atom_site_occupancy
  Mo  Mo0  1  -0.06641436  0.02240826  0.01672544  1
  Mo  Mo1  1  2.17321789  2.26208805  -0.04742776  1
  Mo  Mo2  1  2.18779196  0.07051311  1.53709537  1
  Mo  Mo3  1  -0.08731740  2.21654049  1.56691199  1
  Mo  Mo4  1  4.47124309  -0.03829281  -0.01360802  1
  Mo  Mo5  1  6.68622903  2.21742483  0.03548072  1
  Mo  Mo6  1  6.71591414  -0.00285517  1.55928073  1
  Mo  Mo7  1  4.51588832  2.17588321  1.57984319  1
  Mo  Mo8  1  9.02530569  -0.03533011  -0.00275545  1
  Mo  Mo9  1  11.20567734  2.31638689  -0.03449311  1
  Mo  Mo10  1  11.18921140  0.03361943  1.48604216  1
  Mo  Mo11  1  9.00751570  2.25566165  1.58748609  1
