# generated using pymatgen
data_Mo
_symmetry_space_group_name_H-M   'P 1'
_cell_length_a   13.72753356
_cell_length_b   4.47385961
_cell_length_c   3.16349647
_cell_angle_alpha   90.00000000
_cell_angle_beta   78.02973057
_cell_angle_gamma   88.13237630
_symmetry_Int_Tables_number   1
_chemical_formula_structural   Mo
_chemical_formula_sum   Mo12
_cell_volume   189.95612993
_cell_formula_units_Z   12
loop_
 _symmetry_equiv_pos_site_id
 _symmetry_equiv_pos_as_xyz
  1  'x, y, z'
loop_
 _atom_site_type_symbol
 _atom_site_label
 _atom_site_symmetry_multiplicity
 _atom_site_fract_x
 _atom_site_fract_y
 _atom_site_fract_z
 _atom_site_occupancy
  Mo  Mo0  1  -0.03667372  -0.02332732  0.04631105  1
  Mo  Mo1  1  2.18752639  2.15794514  0.05198892  1
  Mo  Mo2  1  2.26628431  0.01508337  1.58178759  1
  Mo  Mo3  1  -0.04396507  2.19939924  1.55308746  1
  Mo  Mo4  1  4.56462334  0.00139121  -0.02683849  1
  Mo  Mo5  1  6.71946827  2.28335563  0.01114602  1
  Mo  Mo6  1  6.73310358  0.00229225  1.59229327  1
  Mo  Mo7  1  4.38589374  2.23578947  1.57126487  1
  Mo  Mo8  1  8.99992224  0.03753418  0.03341085  1
  Mo  Mo9  1  11.15363424  2.23845319  0.02044935  1
  Mo  Mo10  1  11.18448040  -0.11192810  1.55235445  1
  Mo  Mo11  1  8.99225632  2.25228934  1.53809983  1
