# generated using pymatgen
data_Mo
_symmetry_space_group_name_H-M   'P 1'
_cell_length_a   13.45137150
_cell_length_b   4.47385961
_cell_length_c   3.16349647
_cell_angle_alpha   90.00000000
_cell_angle_beta   90.00000000
_cell_angle_gamma   86.18592515
_symmetry_Int_Tables_number   1
_chemical_formula_structural   Mo
_chemical_formula_sum   Mo12
_cell_volume   189.95612993
_cell_formula_units_Z   12
loop_
 _symmetry_equiv_pos_site_id
 _symmetry_equiv_pos_as_xyz
  1  'x, y, z'
loop_
 _atom_site_type_symbol
 _atom_site_label
 _atom_site_symmetry_multiplicity
 _atom_site_fract_x
 _atom_site_fract_y
 _atom_site_fract_z
 _atom_site_occupancy
  Mo  Mo0  1  -0.01716755  0.01748106  -0.00005020  1
  Mo  Mo1  1  2.27914779  2.24502090  0.02648058  1
  Mo  Mo2  1  2.19540837  -0.05108188  1.58009575  1
  Mo  Mo3  1  -0.04567359  2.23192300  1.62233601  1
  Mo  Mo4  1  4.51482426  -0.00267874  -0.02386167  1
  Mo  Mo5  1  6.72034522  2.14920003  -0.02248823  1
  Mo  Mo6  1  6.77215930  0.02710131  1.58677940  1
  Mo  Mo7  1  4.41894376  2.20748538  1.56471442  1
  Mo  Mo8  1  8.95231880  0.01996612  -0.00356952  1
  Mo  Mo9  1  11.21937909  2.21231657  -0.07808700  1
  Mo  Mo10  1  11.24236777  -0.08726017  1.54832435  1
  Mo  Mo11  1  8.98790949  2.21244161  1.55035501  1
