# generated using pymatgen
data_Mo
_symmetry_space_group_name_H-M   'P 1'
_cell_length_a   13.45509094
_cell_length_b   4.47385961
_cell_length_c   3.16349647
_cell_angle_alpha   90.00000000
_cell_angle_beta   88.65276496
_cell_angle_gamma   86.18698105
_symmetry_Int_Tables_number   1
_chemical_formula_structural   Mo
_chemical_formula_sum   Mo12
_cell_volume   189.95612993
_cell_formula_units_Z   12
loop_
 _symmetry_equiv_pos_site_id
 _symmetry_equiv_pos_as_xyz
  1  'x, y, z'
loop_
 _atom_site_type_symbol
 _atom_site_label
 _atom_site_symmetry_multiplicity
 _atom_site_fract_x
 _atom_site_fract_y
 _atom_site_fract_z
 _atom_site_occupancy
  Mo  Mo0  1  -0.00049038  -0.02099041  -0.01144215  1
  Mo  Mo1  1  2.28162559  2.18034499  0.03556983  1
  Mo  Mo2  1  2.17618436  0.00956492  1.55620183  1
  Mo  Mo3  1  0.06334760  2.24105671  1.59892715  1
  Mo  Mo4  1  4.47236070  0.00751409  0.01154670  1
  Mo  Mo5  1  6.66548890  2.17682186  -0.03367890  1
  Mo  Mo6  1  6.70979230  -0.01451518  1.54003435  1
  Mo  Mo7  1  4.46579261  2.17956606  1.61161554  1
  Mo  Mo8  1  8.91602478  0.02393485  -0.03916677  1
  Mo  Mo9  1  11.14377443  2.14173330  0.01470391  1
  Mo  Mo10  1  11.21181107  -0.02377662  1.61283421  1
  Mo  Mo11  1  8.96617991  2.18038728  1.53490994  1
