# generated using pymatgen
data_Mo
_symmetry_space_group_name_H-M   'P 1'
_cell_length_a   13.46624311
_cell_length_b   4.47385961
_cell_length_c   3.16349647
_cell_angle_alpha   90.00000000
_cell_angle_beta   87.30701803
_cell_angle_gamma   86.19014350
_symmetry_Int_Tables_number   1
_chemical_formula_structural   Mo
_chemical_formula_sum   Mo12
_cell_volume   189.95612993
_cell_formula_units_Z   12
loop_
 _symmetry_equiv_pos_site_id
 _symmetry_equiv_pos_as_xyz
  1  'x, y, z'
loop_
 _atom_site_type_symbol
 _atom_site_label
 _atom_site_symmetry_multiplicity
 _atom_site_fract_x
 _atom_site_fract_y
 _atom_site_fract_z
 _atom_site_occupancy
  Mo  Mo0  1  -0.08510173  0.04424464  0.00142441  1
  Mo  Mo1  1  2.21185826  2.23693122  -0.04809976  1
  Mo  Mo2  1  2.24853255  -0.06567321  1.52178537  1
  Mo  Mo3  1  0.01055454  2.23289538  1.54731766  1
  Mo  Mo4  1  4.50245300  0.04292344  -0.00564191  1
  Mo  Mo5  1  6.75505692  2.23463838  0.00032162  1
  Mo  Mo6  1  6.71917254  0.04031473  1.60962023  1
  Mo  Mo7  1  4.48684626  2.25851960  1.55987451  1
  Mo  Mo8  1  8.99505409  0.03305625  -0.00366724  1
  Mo  Mo9  1  11.20170473  2.23312905  -0.07912925  1
  Mo  Mo10  1  11.19943629  -0.07293014  1.54218467  1
  Mo  Mo11  1  8.91672786  2.19678782  1.63407380  1
