# generated using pymatgen
data_Mo
_symmetry_space_group_name_H-M   'P 1'
_cell_length_a   13.48480957
_cell_length_b   4.47385961
_cell_length_c   3.16349647
_cell_angle_alpha   90.00000000
_cell_angle_beta   85.96423748
_cell_angle_gamma   86.19539680
_symmetry_Int_Tables_number   1
_chemical_formula_structural   Mo
_chemical_formula_sum   Mo12
_cell_volume   189.95612993
_cell_formula_units_Z   12
loop_
 _symmetry_equiv_pos_site_id
 _symmetry_equiv_pos_as_xyz
  1  'x, y, z'
loop_
 _atom_site_type_symbol
 _atom_site_label
 _atom_site_symmetry_multiplicity
 _atom_site_fract_x
 _atom_site_fract_y
 _atom_site_fract_z
 _atom_site_occupancy
  Mo  Mo0  1  0.04377762  -0.07888112  -0.04576400  1
  Mo  Mo1  1  2.32417749  2.16127902  -0.01726308  1
  Mo  Mo2  1  2.19174938  -0.04111083  1.48737713  1
  Mo  Mo3  1  0.02798311  2.25224118  1.65139332  1
  Mo  Mo4  1  4.42631242  0.01174199  0.00192250  1
  Mo  Mo5  1  6.70397409  2.21683672  -0.05444790  1
  Mo  Mo6  1  6.70670820  -0.01538042  1.56360154  1
  Mo  Mo7  1  4.41978341  2.22113959  1.60540635  1
  Mo  Mo8  1  8.89289654  0.02036235  -0.02153753  1
  Mo  Mo9  1  11.16511639  2.24990622  0.02938897  1
  Mo  Mo10  1  11.17947538  -0.00133288  1.52804132  1
  Mo  Mo11  1  8.90689106  2.16227527  1.52770508  1
