# generated using pymatgen
data_Mo
_symmetry_space_group_name_H-M   'P 1'
_cell_length_a   13.51075974
_cell_length_b   4.47385961
_cell_length_c   3.16349647
_cell_angle_alpha   90.00000000
_cell_angle_beta   84.62588207
_cell_angle_gamma   86.20271504
_symmetry_Int_Tables_number   1
_chemical_formula_structural   Mo
_chemical_formula_sum   Mo12
_cell_volume   189.95612993
_cell_formula_units_Z   12
loop_
 _symmetry_equiv_pos_site_id
 _symmetry_equiv_pos_as_xyz
  1  'x, y, z'
loop_
 _atom_site_type_symbol
 _atom_site_label
 _atom_site_symmetry_multiplicity
 _atom_site_fract_x
 _atom_site_fract_y
 _atom_site_fract_z
 _atom_site_occupancy
  Mo  Mo0  1  -0.03316831  -0.02156891  -0.03422299  1
  Mo  Mo1  1  2.21696526  2.27724772  0.02959703  1
  Mo  Mo2  1  2.17354669  0.00349130  1.58307021  1
  Mo  Mo3  1  -0.06244438  2.24413392  1.53887030  1
  Mo  Mo4  1  4.55376459  -0.00800515  -0.02864541  1
  Mo  Mo5  1  6.73120953  2.22674063  -0.00712921  1
  Mo  Mo6  1  6.70167767  0.00680192  1.54343382  1
  Mo  Mo7  1  4.46954342  2.13889968  1.64096164  1
  Mo  Mo8  1  8.99407820  0.05815036  -0.01873284  1
  Mo  Mo9  1  11.18665240  2.22525050  -0.03065480  1
  Mo  Mo10  1  11.18751685  -0.02496126  1.56266798  1
  Mo  Mo11  1  8.99518174  2.22928612  1.59856521  1
