# generated using pymatgen
data_Mo
_symmetry_space_group_name_H-M   'P 1'
_cell_length_a   13.54405119
_cell_length_b   4.47385961
_cell_length_c   3.16349647
_cell_angle_alpha   90.00000000
_cell_angle_beta   83.29338168
_cell_angle_gamma   86.21206246
_symmetry_Int_Tables_number   1
_chemical_formula_structural   Mo
_chemical_formula_sum   Mo12
_cell_volume   189.95612993
_cell_formula_units_Z   12
loop_
 _symmetry_equiv_pos_site_id
 _symmetry_equiv_pos_as_xyz
  1  'x, y, z'
loop_
 _atom_site_type_symbol
 _atom_site_label
 _atom_site_symmetry_multiplicity
 _atom_site_fract_x
 _atom_site_fract_y
 _atom_site_fract_z
 _atom_site_occupancy
  Mo  Mo0  1  0.05632184  -0.04317937  -0.02452052  1
  Mo  Mo1  1  2.20681502  2.25073750  0.06192678  1
  Mo  Mo2  1  2.11930808  0.05407259  1.60754345  1
  Mo  Mo3  1  0.01137998  2.35457410  1.62522295  1
  Mo  Mo4  1  4.52044277  0.05710189  -0.00720054  1
  Mo  Mo5  1  6.70855968  2.22956690  -0.02430673  1
  Mo  Mo6  1  6.70884768  -0.02516925  1.57024740  1
  Mo  Mo7  1  4.47045655  2.19966581  1.55832401  1
  Mo  Mo8  1  8.93855579  -0.03993392  0.06396111  1
  Mo  Mo9  1  11.19837643  2.24467467  -0.01063449  1
  Mo  Mo10  1  11.13607502  0.05586988  1.53339517  1
  Mo  Mo11  1  8.97461014  2.19780605  1.61802483  1
