# generated using pymatgen
data_Mo
_symmetry_space_group_name_H-M   'P 1'
_cell_length_a   13.58462995
_cell_length_b   4.47385961
_cell_length_c   3.16349647
_cell_angle_alpha   90.00000000
_cell_angle_beta   81.96812842
_cell_angle_gamma   86.22339388
_symmetry_Int_Tables_number   1
_chemical_formula_structural   Mo
_chemical_formula_sum   Mo12
_cell_volume   189.95612993
_cell_formula_units_Z   12
loop_
 _symmetry_equiv_pos_site_id
 _symmetry_equiv_pos_as_xyz
  1  'x, y, z'
loop_
 _atom_site_type_symbol
 _atom_site_label
 _atom_site_symmetry_multiplicity
 _atom_site_fract_x
 _atom_site_fract_y
 _atom_site_fract_z
 _atom_site_occupancy
  Mo  Mo0  1  0.04489956  0.00573685  -0.04437184  1
  Mo  Mo1  1  2.28590840  2.23077655  -0.02380752  1
  Mo  Mo2  1  2.25081486  0.04856257  1.54877705  1
  Mo  Mo3  1  -0.04420478  2.21607030  1.53824517  1
  Mo  Mo4  1  4.40879592  -0.06704050  0.02754512  1
  Mo  Mo5  1  6.61575760  2.20691472  -0.04190099  1
  Mo  Mo6  1  6.78174726  0.01769145  1.58646761  1
  Mo  Mo7  1  4.49485437  2.16930275  1.53618094  1
  Mo  Mo8  1  8.92446836  0.03609725  0.02126548  1
  Mo  Mo9  1  11.18669779  2.26008962  -0.03216048  1
  Mo  Mo10  1  11.18123052  0.01240019  1.54068598  1
  Mo  Mo11  1  8.98530769  2.20406250  1.53945570  1
