# generated using pymatgen
data_Mo
_symmetry_space_group_name_H-M   'P 1'
_cell_length_a   13.63243093
_cell_length_b   4.47385961
_cell_length_c   3.16349647
_cell_angle_alpha   90.00000000
_cell_angle_beta   80.65146837
_cell_angle_gamma   86.23665534
_symmetry_Int_Tables_number   1
_chemical_formula_structural   Mo
_chemical_formula_sum   Mo12
_cell_volume   189.95612993
_cell_formula_units_Z   12
loop_
 _symmetry_equiv_pos_site_id
 _symmetry_equiv_pos_as_xyz
  1  'x, y, z'
loop_
 _atom_site_type_symbol
 _atom_site_label
 _atom_site_symmetry_multiplicity
 _atom_site_fract_x
 _atom_site_fract_y
 _atom_site_fract_z
 _atom_site_occupancy
  Mo  Mo0  1  -0.03757708  0.00795498  -0.06128473  1
  Mo  Mo1  1  2.27027226  2.25263682  0.00726035  1
  Mo  Mo2  1  2.25302565  0.01836297  1.58314207  1
  Mo  Mo3  1  0.01826276  2.26139518  1.58213728  1
  Mo  Mo4  1  4.49217559  0.05576287  -0.01626252  1
  Mo  Mo5  1  6.69378146  2.31338251  0.01191569  1
  Mo  Mo6  1  6.69049496  -0.01039888  1.53380100  1
  Mo  Mo7  1  4.48070445  2.24339953  1.64736176  1
  Mo  Mo8  1  8.97241713  0.03487484  0.00038714  1
  Mo  Mo9  1  11.17043461  2.28483486  0.04492703  1
  Mo  Mo10  1  11.18954720  -0.00013467  1.52844503  1
  Mo  Mo11  1  8.89157219  2.22119561  1.54801510  1
