# generated using pymatgen
data_Mo
_symmetry_space_group_name_H-M   'P 1'
_cell_length_a   13.68737848
_cell_length_b   4.47385961
_cell_length_c   3.16349647
_cell_angle_alpha   90.00000000
_cell_angle_beta   79.34469395
_cell_angle_gamma   86.25178480
_symmetry_Int_Tables_number   1
_chemical_formula_structural   Mo
_chemical_formula_sum   Mo12
_cell_volume   189.95612993
_cell_formula_units_Z   12
loop_
 _symmetry_equiv_pos_site_id
 _symmetry_equiv_pos_as_xyz
  1  'x, y, z'
loop_
 _atom_site_type_symbol
 _atom_site_label
 _atom_site_symmetry_multiplicity
 _atom_site_fract_x
 _atom_site_fract_y
 _atom_site_fract_z
 _atom_site_occupancy
  Mo  Mo0  1  0.03642449  -0.02401262  0.04624325  1
  Mo  Mo1  1  2.21300241  2.17337200  0.01582399  1
  Mo  Mo2  1  2.28490655  0.04202607  1.61566768  1
  Mo  Mo3  1  0.02742823  2.22798838  1.56097261  1
  Mo  Mo4  1  4.44043640  0.04697085  -0.05286945  1
  Mo  Mo5  1  6.70584015  2.21713693  -0.07746854  1
  Mo  Mo6  1  6.63723854  0.01052982  1.61893124  1
  Mo  Mo7  1  4.42731124  2.26635586  1.53749987  1
  Mo  Mo8  1  8.86886598  -0.04749956  0.00670900  1
  Mo  Mo9  1  11.10115330  2.23769192  0.01202281  1
  Mo  Mo10  1  11.14643911  0.06333012  1.59576622  1
  Mo  Mo11  1  8.92178080  2.19069823  1.49091496  1
