# generated using pymatgen
data_Mo
_symmetry_space_group_name_H-M   'P 1'
_cell_length_a   13.74938690
_cell_length_b   4.47385961
_cell_length_c   3.16349647
_cell_angle_alpha   90.00000000
_cell_angle_beta   78.04903721
_cell_angle_gamma   86.26871289
_symmetry_Int_Tables_number   1
_chemical_formula_structural   Mo
_chemical_formula_sum   Mo12
_cell_volume   189.95612993
_cell_formula_units_Z   12
loop_
 _symmetry_equiv_pos_site_id
 _symmetry_equiv_pos_as_xyz
  1  'x, y, z'
loop_
 _atom_site_type_symbol
 _atom_site_label
 _atom_site_symmetry_multiplicity
 _atom_site_fract_x
 _atom_site_fract_y
 _atom_site_fract_z
 _atom_site_occupancy
  Mo  Mo0  1  0.03385791  0.00707219  -0.03393916  1
  Mo  Mo1  1  2.21926874  2.22885569  0.04378527  1
  Mo  Mo2  1  2.11617342  -0.01649380  1.52831194  1
  Mo  Mo3  1  -0.03076162  2.17027977  1.61378714  1
  Mo  Mo4  1  4.45416888  -0.02004762  -0.02372118  1
  Mo  Mo5  1  6.72568905  2.25336773  -0.00730497  1
  Mo  Mo6  1  6.73672824  0.04275696  1.53061407  1
  Mo  Mo7  1  4.42368010  2.35986104  1.53249134  1
  Mo  Mo8  1  8.92614921  0.02073267  -0.03121641  1
  Mo  Mo9  1  11.13030981  2.23341688  0.01226383  1
  Mo  Mo10  1  11.12827155  -0.00300975  1.60952211  1
  Mo  Mo11  1  8.92283348  2.20856873  1.54214760  1
