# generated using pymatgen
data_Mo
_symmetry_space_group_name_H-M   'P 1'
_cell_length_a   13.49222900
_cell_length_b   4.47385961
_cell_length_c   3.16349647
_cell_angle_alpha   90.00000000
_cell_angle_beta   88.65647398
_cell_angle_gamma   84.29098201
_symmetry_Int_Tables_number   1
_chemical_formula_structural   Mo
_chemical_formula_sum   Mo12
_cell_volume   189.95612993
_cell_formula_units_Z   12
loop_
 _symmetry_equiv_pos_site_id
 _symmetry_equiv_pos_as_xyz
  1  'x, y, z'
loop_
 _atom_site_type_symbol
 _atom_site_label
 _atom_site_symmetry_multiplicity
 _atom_site_fract_x
 _atom_site_fract_y
 _atom_site_fract_z
 _atom_site_occupancy
  Mo  Mo0  1  0.01267370  -0.02703705  -0.08786327  1
  Mo  Mo1  1  2.26041319  2.30356229  -0.06628197  1
  Mo  Mo2  1  2.20413254  0.02169380  1.58179543  1
  Mo  Mo3  1  -0.03011933  2.26197699  1.57794341  1
  Mo  Mo4  1  4.41386764  -0.01989360  0.06819387  1
  Mo  Mo5  1  6.66210042  2.29246749  0.01649042  1
  Mo  Mo6  1  6.77125110  0.05530528  1.53862001  1
  Mo  Mo7  1  4.45693586  2.21218988  1.63978033  1
  Mo  Mo8  1  8.89699210  0.04490302  0.07124014  1
  Mo  Mo9  1  11.16401261  2.21023011  0.02931287  1
  Mo  Mo10  1  11.21943153  0.01418488  1.56612880  1
  Mo  Mo11  1  8.93550117  2.29285740  1.53763849  1
