# generated using pymatgen
data_Mo
_symmetry_space_group_name_H-M   'P 1'
_cell_length_a   13.50335050
_cell_length_b   4.47385961
_cell_length_c   3.16349647
_cell_angle_alpha   90.00000000
_cell_angle_beta   87.31442381
_cell_angle_gamma   84.29569962
_symmetry_Int_Tables_number   1
_chemical_formula_structural   Mo
_chemical_formula_sum   Mo12
_cell_volume   189.95612993
_cell_formula_units_Z   12
loop_
 _symmetry_equiv_pos_site_id
 _symmetry_equiv_pos_as_xyz
  1  'x, y, z'
loop_
 _atom_site_type_symbol
 _atom_site_label
 _atom_site_symmetry_multiplicity
 _atom_site_fract_x
 _atom_site_fract_y
 _atom_site_fract_z
 _atom_site_occupancy
  Mo  Mo0  1  0.02294917  0.08478862  0.09708695  1
  Mo  Mo1  1  2.24740656  2.17740492  -0.00146155  1
  Mo  Mo2  1  2.25406553  -0.06085189  1.55269401  1
  Mo  Mo3  1  0.04182779  2.30137512  1.51789093  1
  Mo  Mo4  1  4.48702921  -0.00839298  0.01186330  1
  Mo  Mo5  1  6.66519156  2.25982124  -0.01447845  1
  Mo  Mo6  1  6.71223760  -0.02071124  1.58112104  1
  Mo  Mo7  1  4.47203576  2.21232560  1.54913011  1
  Mo  Mo8  1  8.96800255  0.04179957  0.00577026  1
  Mo  Mo9  1  11.17108768  2.28642875  0.06587863  1
  Mo  Mo10  1  11.17378753  -0.01432007  1.45010096  1
  Mo  Mo11  1  8.98956228  2.22792549  1.55538954  1
