# generated using pymatgen
data_Mo
_symmetry_space_group_name_H-M   'P 1'
_cell_length_a   13.52186600
_cell_length_b   4.47385961
_cell_length_c   3.16349647
_cell_angle_alpha   90.00000000
_cell_angle_beta   85.97531567
_cell_angle_gamma   84.30353638
_symmetry_Int_Tables_number   1
_chemical_formula_structural   Mo
_chemical_formula_sum   Mo12
_cell_volume   189.95612993
_cell_formula_units_Z   12
loop_
 _symmetry_equiv_pos_site_id
 _symmetry_equiv_pos_as_xyz
  1  'x, y, z'
loop_
 _atom_site_type_symbol
 _atom_site_label
 _atom_site_symmetry_multiplicity
 _atom_site_fract_x
 _atom_site_fract_y
 _atom_site_fract_z
 _atom_site_occupancy
  Mo  Mo0  1  0.02420373  -0.02533079  -0.01626765  1
  Mo  Mo1  1  2.27084878  2.26627356  -0.02374432  1
  Mo  Mo2  1  2.27487197  0.05019684  1.55689392  1
  Mo  Mo3  1  0.01351493  2.23416247  1.62518230  1
  Mo  Mo4  1  4.46185891  0.00598430  0.05261134  1
  Mo  Mo5  1  6.69764790  2.23798951  -0.01934917  1
  Mo  Mo6  1  6.73454133  0.02188301  1.53962178  1
  Mo  Mo7  1  4.40728871  2.22122604  1.53707631  1
  Mo  Mo8  1  8.90802367  0.01073690  0.06563045  1
  Mo  Mo9  1  11.19302045  2.35868968  -0.04194217  1
  Mo  Mo10  1  11.25700065  0.03433904  1.53801483  1
  Mo  Mo11  1  8.94077113  2.21225304  1.55563390  1
