# generated using pymatgen
data_Mo
_symmetry_space_group_name_H-M   'P 1'
_cell_length_a   13.58094598
_cell_length_b   4.47385961
_cell_length_c   3.16349647
_cell_angle_alpha   90.00000000
_cell_angle_beta   83.31168459
_cell_angle_gamma   84.32839863
_symmetry_Int_Tables_number   1
_chemical_formula_structural   Mo
_chemical_formula_sum   Mo12
_cell_volume   189.95612993
_cell_formula_units_Z   12
loop_
 _symmetry_equiv_pos_site_id
 _symmetry_equiv_pos_as_xyz
  1  'x, y, z'
loop_
 _atom_site_type_symbol
 _atom_site_label
 _atom_site_symmetry_multiplicity
 _atom_site_fract_x
 _atom_site_fract_y
 _atom_site_fract_z
 _atom_site_occupancy
  Mo  Mo0  1  0.03741097  -0.02218597  -0.04215487  1
  Mo  Mo1  1  2.21418645  2.24123052  -0.00693568  1
  Mo  Mo2  1  2.22990517  0.00756084  1.53340639  1
  Mo  Mo3  1  0.05788160  2.25009476  1.56839871  1
  Mo  Mo4  1  4.48451293  -0.00124876  0.01689796  1
  Mo  Mo5  1  6.77538604  2.23567929  0.06060381  1
  Mo  Mo6  1  6.72223492  0.02666659  1.59075310  1
  Mo  Mo7  1  4.48436574  2.23328004  1.61647252  1
  Mo  Mo8  1  8.96712465  -0.01024494  0.00741923  1
  Mo  Mo9  1  11.25681102  2.24011692  -0.03278436  1
  Mo  Mo10  1  11.18689778  -0.00568150  1.63393457  1
  Mo  Mo11  1  8.96551091  2.16922238  1.58304949  1
