# generated using pymatgen
data_Mo
_symmetry_space_group_name_H-M   'P 1'
_cell_length_a   13.62141482
_cell_length_b   4.47385961
_cell_length_c   3.16349647
_cell_angle_alpha   90.00000000
_cell_angle_beta   81.98996126
_cell_angle_gamma   84.34530381
_symmetry_Int_Tables_number   1
_chemical_formula_structural   Mo
_chemical_formula_sum   Mo12
_cell_volume   189.95612993
_cell_formula_units_Z   12
loop_
 _symmetry_equiv_pos_site_id
 _symmetry_equiv_pos_as_xyz
  1  'x, y, z'
loop_
 _atom_site_type_symbol
 _atom_site_label
 _atom_site_symmetry_multiplicity
 _atom_site_fract_x
 _atom_site_fract_y
 _atom_site_fract_z
 _atom_site_occupancy
  Mo  Mo0  1  0.00892979  0.02631979  -0.02306633  1
  Mo  Mo1  1  2.25315504  2.25548922  -0.07856607  1
  Mo  Mo2  1  2.24789279  -0.06269523  1.64414871  1
  Mo  Mo3  1  -0.02883680  2.24909998  1.62805702  1
  Mo  Mo4  1  4.43212014  -0.03885428  -0.02542537  1
  Mo  Mo5  1  6.77832359  2.18576022  -0.00752600  1
  Mo  Mo6  1  6.70784871  -0.00638549  1.57741975  1
  Mo  Mo7  1  4.44612931  2.19691246  1.56613038  1
  Mo  Mo8  1  8.86266468  0.07006066  -0.03080217  1
  Mo  Mo9  1  11.16355306  2.20535886  0.01161368  1
  Mo  Mo10  1  11.13603014  -0.06242597  1.59766071  1
  Mo  Mo11  1  8.94590320  2.20048889  1.62626840  1
