# generated using pymatgen
data_Mo
_symmetry_space_group_name_H-M   'P 1'
_cell_length_a   13.66908717
_cell_length_b   4.47385961
_cell_length_c   3.16349647
_cell_angle_alpha   90.00000000
_cell_angle_beta   80.67676217
_cell_angle_gamma   84.36508908
_symmetry_Int_Tables_number   1
_chemical_formula_structural   Mo
_chemical_formula_sum   Mo12
_cell_volume   189.95612993
_cell_formula_units_Z   12
loop_
 _symmetry_equiv_pos_site_id
 _symmetry_equiv_pos_as_xyz
  1  'x, y, z'
loop_
 _atom_site_type_symbol
 _atom_site_label
 _atom_site_symmetry_multiplicity
 _atom_site_fract_x
 _atom_site_fract_y
 _atom_site_fract_z
 _atom_site_occupancy
  Mo  Mo0  1  0.00485575  -0.01212357  0.02299542  1
  Mo  Mo1  1  2.25981698  2.23451127  0.02010243  1
  Mo  Mo2  1  2.21633810  0.02691325  1.58102591  1
  Mo  Mo3  1  -0.02584635  2.26202008  1.59070238  1
  Mo  Mo4  1  4.43898435  0.03296375  0.08326630  1
  Mo  Mo5  1  6.71994055  2.26454696  -0.01532070  1
  Mo  Mo6  1  6.71697712  0.03965203  1.53941274  1
  Mo  Mo7  1  4.46050912  2.19095481  1.53224034  1
  Mo  Mo8  1  8.97119881  -0.02263357  0.07759807  1
  Mo  Mo9  1  11.23479452  2.23338884  0.01855043  1
  Mo  Mo10  1  11.16296699  0.00967498  1.52456696  1
  Mo  Mo11  1  8.89631821  2.25178374  1.60259083  1
