# generated using pymatgen
data_Mo
_symmetry_space_group_name_H-M   'P 1'
_cell_length_a   13.78573216
_cell_length_b   4.47385961
_cell_length_c   3.16349647
_cell_angle_alpha   90.00000000
_cell_angle_beta   78.08100836
_cell_angle_gamma   84.41292002
_symmetry_Int_Tables_number   1
_chemical_formula_structural   Mo
_chemical_formula_sum   Mo12
_cell_volume   189.95612993
_cell_formula_units_Z   12
loop_
 _symmetry_equiv_pos_site_id
 _symmetry_equiv_pos_as_xyz
  1  'x, y, z'
loop_
 _atom_site_type_symbol
 _atom_site_label
 _atom_site_symmetry_multiplicity
 _atom_site_fract_x
 _atom_site_fract_y
 _atom_site_fract_z
 _atom_site_occupancy
  Mo  Mo0  1  0.07558784  0.00830746  0.03561700  1
  Mo  Mo1  1  2.18995313  2.24781261  0.02398577  1
  Mo  Mo2  1  2.21061654  -0.04152125  1.55862655  1
  Mo  Mo3  1  -0.01417792  2.24862986  1.51025368  1
  Mo  Mo4  1  4.45836330  0.01786959  -0.01885463  1
  Mo  Mo5  1  6.75709286  2.18800031  0.03925776  1
  Mo  Mo6  1  6.67831932  -0.06995136  1.60944783  1
  Mo  Mo7  1  4.47300838  2.25689547  1.68751727  1
  Mo  Mo8  1  8.99093090  -0.00649136  0.02199388  1
  Mo  Mo9  1  11.27573828  2.23526769  -0.02985517  1
  Mo  Mo10  1  11.19158629  -0.06264568  1.59221976  1
  Mo  Mo11  1  8.92780478  2.19013781  1.59589506  1
