# generated using pymatgen
data_Mo
_symmetry_space_group_name_H-M   'P 1'
_cell_length_a   13.54035618
_cell_length_b   4.47385961
_cell_length_c   3.16349647
_cell_angle_alpha   90.00000000
_cell_angle_beta   90.00000000
_cell_angle_gamma   82.40535665
_symmetry_Int_Tables_number   1
_chemical_formula_structural   Mo
_chemical_formula_sum   Mo12
_cell_volume   189.95612993
_cell_formula_units_Z   12
loop_
 _symmetry_equiv_pos_site_id
 _symmetry_equiv_pos_as_xyz
  1  'x, y, z'
loop_
 _atom_site_type_symbol
 _atom_site_label
 _atom_site_symmetry_multiplicity
 _atom_site_fract_x
 _atom_site_fract_y
 _atom_site_fract_z
 _atom_site_occupancy
  Mo  Mo0  1  -0.05410519  -0.04915188  0.00238434  1
  Mo  Mo1  1  2.17109796  2.23787149  -0.00135550  1
  Mo  Mo2  1  2.18943079  -0.08362511  1.59640474  1
  Mo  Mo3  1  0.05949622  2.24817650  1.51811857  1
  Mo  Mo4  1  4.46734789  -0.04531877  0.07115932  1
  Mo  Mo5  1  6.69947041  2.24207856  0.01873605  1
  Mo  Mo6  1  6.74709949  -0.00755181  1.59895620  1
  Mo  Mo7  1  4.48242272  2.18900272  1.54680763  1
  Mo  Mo8  1  8.96174309  -0.05302691  -0.03289504  1
  Mo  Mo9  1  11.13748304  2.24584559  -0.01737477  1
  Mo  Mo10  1  11.19084051  -0.07359569  1.55914743  1
  Mo  Mo11  1  8.89804375  2.19851473  1.56414215  1
