# generated using pymatgen
data_Mo
_symmetry_space_group_name_H-M   'P 1'
_cell_length_a   13.54405119
_cell_length_b   4.47385961
_cell_length_c   3.16349647
_cell_angle_alpha   90.00000000
_cell_angle_beta   88.66161551
_cell_angle_gamma   82.40744079
_symmetry_Int_Tables_number   1
_chemical_formula_structural   Mo
_chemical_formula_sum   Mo12
_cell_volume   189.95612993
_cell_formula_units_Z   12
loop_
 _symmetry_equiv_pos_site_id
 _symmetry_equiv_pos_as_xyz
  1  'x, y, z'
loop_
 _atom_site_type_symbol
 _atom_site_label
 _atom_site_symmetry_multiplicity
 _atom_site_fract_x
 _atom_site_fract_y
 _atom_site_fract_z
 _atom_site_occupancy
  Mo  Mo0  1  0.03344625  -0.05399566  0.05120225  1
  Mo  Mo1  1  2.25974619  2.25998389  -0.00109896  1
  Mo  Mo2  1  2.22174929  -0.01228525  1.63696170  1
  Mo  Mo3  1  0.06829291  2.27887944  1.55933511  1
  Mo  Mo4  1  4.49161084  0.07954754  0.00950913  1
  Mo  Mo5  1  6.75094910  2.22812163  -0.02392479  1
  Mo  Mo6  1  6.68523961  -0.00332880  1.57773487  1
  Mo  Mo7  1  4.47534051  2.28274921  1.56541980  1
  Mo  Mo8  1  8.93584919  0.02776182  -0.02439041  1
  Mo  Mo9  1  11.16885889  2.20294663  0.02431026  1
  Mo  Mo10  1  11.19390169  0.03247944  1.58126764  1
  Mo  Mo11  1  8.94105805  2.26006373  1.51749361  1
