# generated using pymatgen
data_Mo
_symmetry_space_group_name_H-M   'P 1'
_cell_length_a   13.59935584
_cell_length_b   4.47385961
_cell_length_c   3.16349647
_cell_angle_alpha   90.00000000
_cell_angle_beta   84.66099501
_cell_angle_gamma   82.43849843
_symmetry_Int_Tables_number   1
_chemical_formula_structural   Mo
_chemical_formula_sum   Mo12
_cell_volume   189.95612993
_cell_formula_units_Z   12
loop_
 _symmetry_equiv_pos_site_id
 _symmetry_equiv_pos_as_xyz
  1  'x, y, z'
loop_
 _atom_site_type_symbol
 _atom_site_label
 _atom_site_symmetry_multiplicity
 _atom_site_fract_x
 _atom_site_fract_y
 _atom_site_fract_z
 _atom_site_occupancy
  Mo  Mo0  1  0.00703621  0.09460168  0.03973573  1
  Mo  Mo1  1  2.18480395  2.24409887  -0.07021277  1
  Mo  Mo2  1  2.17951338  -0.05567219  1.61438696  1
  Mo  Mo3  1  0.05153497  2.27441621  1.57252054  1
  Mo  Mo4  1  4.44873872  -0.02554975  -0.01518524  1
  Mo  Mo5  1  6.64062877  2.30105188  -0.03493656  1
  Mo  Mo6  1  6.69095295  0.03609572  1.58339258  1
  Mo  Mo7  1  4.54609037  2.19196584  1.56295537  1
  Mo  Mo8  1  8.92792597  0.00154914  0.05475349  1
  Mo  Mo9  1  11.20420123  2.26028073  -0.05109004  1
  Mo  Mo10  1  11.25546480  -0.05128428  1.55056612  1
  Mo  Mo11  1  8.90558818  2.22072735  1.57210786  1
