# generated using pymatgen
data_Mo
_symmetry_space_group_name_H-M   'P 1'
_cell_length_a   13.63243093
_cell_length_b   4.47385961
_cell_length_c   3.16349647
_cell_angle_alpha   90.00000000
_cell_angle_beta   83.33705874
_cell_angle_gamma   82.45695105
_symmetry_Int_Tables_number   1
_chemical_formula_structural   Mo
_chemical_formula_sum   Mo12
_cell_volume   189.95612993
_cell_formula_units_Z   12
loop_
 _symmetry_equiv_pos_site_id
 _symmetry_equiv_pos_as_xyz
  1  'x, y, z'
loop_
 _atom_site_type_symbol
 _atom_site_label
 _atom_site_symmetry_multiplicity
 _atom_site_fract_x
 _atom_site_fract_y
 _atom_site_fract_z
 _atom_site_occupancy
  Mo  Mo0  1  -0.02372391  -0.02408728  0.01817342  1
  Mo  Mo1  1  2.21213428  2.26452304  -0.04583792  1
  Mo  Mo2  1  2.17397143  0.07168870  1.58002574  1
  Mo  Mo3  1  0.04629234  2.26308206  1.56268134  1
  Mo  Mo4  1  4.49840674  0.02701483  -0.03657389  1
  Mo  Mo5  1  6.68881443  2.27277824  -0.00939844  1
  Mo  Mo6  1  6.75012121  -0.04652582  1.56424424  1
  Mo  Mo7  1  4.50178473  2.34163283  1.60616714  1
  Mo  Mo8  1  8.96759142  -0.02825331  -0.02187219  1
  Mo  Mo9  1  11.18960005  2.28900539  -0.04698115  1
  Mo  Mo10  1  11.16871471  -0.01306518  1.51128010  1
  Mo  Mo11  1  8.92605669  2.20786883  1.60827069  1
