# generated using pymatgen
data_Mo
_symmetry_space_group_name_H-M   'P 1'
_cell_length_a   13.67274739
_cell_length_b   4.47385961
_cell_length_c   3.16349647
_cell_angle_alpha   90.00000000
_cell_angle_beta   82.02023025
_cell_angle_gamma   82.47932185
_symmetry_Int_Tables_number   1
_chemical_formula_structural   Mo
_chemical_formula_sum   Mo12
_cell_volume   189.95612993
_cell_formula_units_Z   12
loop_
 _symmetry_equiv_pos_site_id
 _symmetry_equiv_pos_as_xyz
  1  'x, y, z'
loop_
 _atom_site_type_symbol
 _atom_site_label
 _atom_site_symmetry_multiplicity
 _atom_site_fract_x
 _atom_site_fract_y
 _atom_site_fract_z
 _atom_site_occupancy
  Mo  Mo0  1  0.01481539  0.00508927  0.02097575  1
  Mo  Mo1  1  2.22217818  2.30657321  0.01507979  1
  Mo  Mo2  1  2.24437235  0.02706944  1.53302967  1
  Mo  Mo3  1  0.04894212  2.21768917  1.53738979  1
  Mo  Mo4  1  4.53065111  -0.02128106  -0.03629002  1
  Mo  Mo5  1  6.67444322  2.16415824  -0.03952412  1
  Mo  Mo6  1  6.66004645  -0.04673262  1.54968427  1
  Mo  Mo7  1  4.50329962  2.22500383  1.58526174  1
  Mo  Mo8  1  8.97152401  -0.00467451  -0.00914225  1
  Mo  Mo9  1  11.24755859  2.18363035  -0.03307645  1
  Mo  Mo10  1  11.20252972  -0.04036540  1.62306011  1
  Mo  Mo11  1  8.98028895  2.24374113  1.60674585  1
