# generated using pymatgen
data_Mo
_symmetry_space_group_name_H-M   'P 1'
_cell_length_a   13.77483865
_cell_length_b   4.47385961
_cell_length_c   3.16349647
_cell_angle_alpha   90.00000000
_cell_angle_beta   79.41313057
_cell_angle_gamma   82.53537957
_symmetry_Int_Tables_number   1
_chemical_formula_structural   Mo
_chemical_formula_sum   Mo12
_cell_volume   189.95612993
_cell_formula_units_Z   12
loop_
 _symmetry_equiv_pos_site_id
 _symmetry_equiv_pos_as_xyz
  1  'x, y, z'
loop_
 _atom_site_type_symbol
 _atom_site_label
 _atom_site_symmetry_multiplicity
 _atom_site_fract_x
 _atom_site_fract_y
 _atom_site_fract_z
 _atom_site_occupancy
  Mo  Mo0  1  -0.06738699  -0.00008440  -0.01694459  1
  Mo  Mo1  1  2.22676084  2.22476404  0.00161331  1
  Mo  Mo2  1  2.23421025  -0.04783187  1.57448593  1
  Mo  Mo3  1  -0.03499494  2.22725191  1.60856532  1
  Mo  Mo4  1  4.48758370  -0.02487767  -0.00821392  1
  Mo  Mo5  1  6.67611190  2.20231165  0.01584077  1
  Mo  Mo6  1  6.68432147  0.00531851  1.61302869  1
  Mo  Mo7  1  4.47364807  2.21518405  1.60381283  1
  Mo  Mo8  1  8.96639951  -0.08320208  0.00010588  1
  Mo  Mo9  1  11.20129380  2.19084094  -0.02447995  1
  Mo  Mo10  1  11.19577560  -0.06257915  1.54982593  1
  Mo  Mo11  1  8.87881781  2.16600680  1.61124451  1
