# generated using pymatgen
data_Mo
_symmetry_space_group_name_H-M   'P 1'
_cell_length_a   13.60671281
_cell_length_b   4.47385961
_cell_length_c   3.16349647
_cell_angle_alpha   90.00000000
_cell_angle_beta   90.00000000
_cell_angle_gamma   80.53767779
_symmetry_Int_Tables_number   1
_chemical_formula_structural   Mo
_chemical_formula_sum   Mo12
_cell_volume   189.95612993
_cell_formula_units_Z   12
loop_
 _symmetry_equiv_pos_site_id
 _symmetry_equiv_pos_as_xyz
  1  'x, y, z'
loop_
 _atom_site_type_symbol
 _atom_site_label
 _atom_site_symmetry_multiplicity
 _atom_site_fract_x
 _atom_site_fract_y
 _atom_site_fract_z
 _atom_site_occupancy
  Mo  Mo0  1  -0.02411522  -0.04217092  -0.02191898  1
  Mo  Mo1  1  2.22596130  2.28555857  -0.03604064  1
  Mo  Mo2  1  2.23968906  0.08668032  1.58760941  1
  Mo  Mo3  1  0.02057968  2.18544734  1.53977832  1
  Mo  Mo4  1  4.49235097  0.00931417  0.07077423  1
  Mo  Mo5  1  6.74515974  2.23593279  -0.00626582  1
  Mo  Mo6  1  6.68301717  -0.00680703  1.55529937  1
  Mo  Mo7  1  4.49687361  2.32117213  1.56398792  1
  Mo  Mo8  1  8.92118429  0.01912908  0.07897471  1
  Mo  Mo9  1  11.20024158  2.33234505  0.09617745  1
  Mo  Mo10  1  11.12042942  -0.00861078  1.64793775  1
  Mo  Mo11  1  8.94286466  2.29256758  1.55635015  1
