# generated using pymatgen
data_Mo
_symmetry_space_group_name_H-M   'P 1'
_cell_length_a   13.61038980
_cell_length_b   4.47385961
_cell_length_c   3.16349647
_cell_angle_alpha   90.00000000
_cell_angle_beta   88.66814012
_cell_angle_gamma   80.54025762
_symmetry_Int_Tables_number   1
_chemical_formula_structural   Mo
_chemical_formula_sum   Mo12
_cell_volume   189.95612993
_cell_formula_units_Z   12
loop_
 _symmetry_equiv_pos_site_id
 _symmetry_equiv_pos_as_xyz
  1  'x, y, z'
loop_
 _atom_site_type_symbol
 _atom_site_label
 _atom_site_symmetry_multiplicity
 _atom_site_fract_x
 _atom_site_fract_y
 _atom_site_fract_z
 _atom_site_occupancy
  Mo  Mo0  1  0.00916272  0.01225205  -0.02929571  1
  Mo  Mo1  1  2.13257080  2.22901450  -0.08761655  1
  Mo  Mo2  1  2.26449757  -0.00369138  1.61269866  1
  Mo  Mo3  1  0.01979513  2.26977611  1.56132124  1
  Mo  Mo4  1  4.40335617  -0.01758671  0.05156088  1
  Mo  Mo5  1  6.69414409  2.25460704  0.02911359  1
  Mo  Mo6  1  6.72750346  0.01279972  1.57275121  1
  Mo  Mo7  1  4.42419845  2.20356650  1.56883429  1
  Mo  Mo8  1  8.90213109  -0.01816512  -0.01760525  1
  Mo  Mo9  1  11.19597901  2.25422458  0.07838990  1
  Mo  Mo10  1  11.27830563  0.02037949  1.57011367  1
  Mo  Mo11  1  8.95375861  2.14535303  1.50355270  1
