# generated using pymatgen
data_Mo
_symmetry_space_group_name_H-M   'P 1'
_cell_length_a   13.62141482
_cell_length_b   4.47385961
_cell_length_c   3.16349647
_cell_angle_alpha   90.00000000
_cell_angle_beta   87.33771803
_cell_angle_gamma   80.54798448
_symmetry_Int_Tables_number   1
_chemical_formula_structural   Mo
_chemical_formula_sum   Mo12
_cell_volume   189.95612993
_cell_formula_units_Z   12
loop_
 _symmetry_equiv_pos_site_id
 _symmetry_equiv_pos_as_xyz
  1  'x, y, z'
loop_
 _atom_site_type_symbol
 _atom_site_label
 _atom_site_symmetry_multiplicity
 _atom_site_fract_x
 _atom_site_fract_y
 _atom_site_fract_z
 _atom_site_occupancy
  Mo  Mo0  1  0.06485930  0.04379405  0.08204819  1
  Mo  Mo1  1  2.25539121  2.30265904  0.01031355  1
  Mo  Mo2  1  2.21850229  -0.05824623  1.56960035  1
  Mo  Mo3  1  0.04442093  2.31351480  1.57166208  1
  Mo  Mo4  1  4.52815924  0.06573467  -0.07743039  1
  Mo  Mo5  1  6.76728007  2.26036586  0.02484379  1
  Mo  Mo6  1  6.70337499  0.00507159  1.57486228  1
  Mo  Mo7  1  4.40396631  2.32180566  1.56944389  1
  Mo  Mo8  1  8.92752236  -0.04837348  -0.03733205  1
  Mo  Mo9  1  11.13748110  2.28094268  0.00720837  1
  Mo  Mo10  1  11.18205941  0.02563650  1.61291188  1
  Mo  Mo11  1  8.94521736  2.23089115  1.57479667  1
