# generated using pymatgen
data_Mo
_symmetry_space_group_name_H-M   'P 1'
_cell_length_a   13.63977006
_cell_length_b   4.47385961
_cell_length_c   3.16349647
_cell_angle_alpha   90.00000000
_cell_angle_beta   86.01016219
_cell_angle_gamma   80.56082062
_symmetry_Int_Tables_number   1
_chemical_formula_structural   Mo
_chemical_formula_sum   Mo12
_cell_volume   189.95612993
_cell_formula_units_Z   12
loop_
 _symmetry_equiv_pos_site_id
 _symmetry_equiv_pos_as_xyz
  1  'x, y, z'
loop_
 _atom_site_type_symbol
 _atom_site_label
 _atom_site_symmetry_multiplicity
 _atom_site_fract_x
 _atom_site_fract_y
 _atom_site_fract_z
 _atom_site_occupancy
  Mo  Mo0  1  0.02957914  0.06052203  -0.02812311  1
  Mo  Mo1  1  2.30666607  2.15005991  -0.03977514  1
  Mo  Mo2  1  2.19676122  0.00123511  1.58154844  1
  Mo  Mo3  1  0.01826843  2.23322464  1.59045507  1
  Mo  Mo4  1  4.44504288  0.04216726  0.04047824  1
  Mo  Mo5  1  6.68149442  2.23831890  -0.00045498  1
  Mo  Mo6  1  6.71177926  -0.01888450  1.53931771  1
  Mo  Mo7  1  4.51615113  2.24357779  1.55890958  1
  Mo  Mo8  1  8.93304136  0.00050618  0.01484596  1
  Mo  Mo9  1  11.14609768  2.22497364  0.04467647  1
  Mo  Mo10  1  11.15080016  0.02660833  1.52474503  1
  Mo  Mo11  1  8.94363678  2.25631876  1.56833433  1
