# generated using pymatgen
data_Mo
_symmetry_space_group_name_H-M   'P 1'
_cell_length_a   13.66542597
_cell_length_b   4.47385961
_cell_length_c   3.16349647
_cell_angle_alpha   90.00000000
_cell_angle_beta   84.68688267
_cell_angle_gamma   80.57870366
_symmetry_Int_Tables_number   1
_chemical_formula_structural   Mo
_chemical_formula_sum   Mo12
_cell_volume   189.95612993
_cell_formula_units_Z   12
loop_
 _symmetry_equiv_pos_site_id
 _symmetry_equiv_pos_as_xyz
  1  'x, y, z'
loop_
 _atom_site_type_symbol
 _atom_site_label
 _atom_site_symmetry_multiplicity
 _atom_site_fract_x
 _atom_site_fract_y
 _atom_site_fract_z
 _atom_site_occupancy
  Mo  Mo0  1  -0.02642950  -0.02317268  0.01351056  1
  Mo  Mo1  1  2.26077320  2.28023862  0.00386636  1
  Mo  Mo2  1  2.23126691  0.07088888  1.60514728  1
  Mo  Mo3  1  0.00042701  2.37441548  1.53580600  1
  Mo  Mo4  1  4.48146371  -0.00252424  -0.02355358  1
  Mo  Mo5  1  6.65139420  2.22125545  0.04510018  1
  Mo  Mo6  1  6.71817638  -0.06198815  1.56972397  1
  Mo  Mo7  1  4.46888081  2.27524407  1.55658919  1
  Mo  Mo8  1  8.91418771  -0.02763972  0.00967366  1
  Mo  Mo9  1  11.18345449  2.26524953  -0.01049418  1
  Mo  Mo10  1  11.12799583  -0.05179705  1.57556957  1
  Mo  Mo11  1  8.94713989  2.20980740  1.58702744  1
