# generated using pymatgen
data_Mo
_symmetry_space_group_name_H-M   'P 1'
_cell_length_a   13.84007109
_cell_length_b   4.47385961
_cell_length_c   3.16349647
_cell_angle_alpha   90.00000000
_cell_angle_beta   79.46360129
_cell_angle_gamma   80.69865158
_symmetry_Int_Tables_number   1
_chemical_formula_structural   Mo
_chemical_formula_sum   Mo12
_cell_volume   189.95612993
_cell_formula_units_Z   12
loop_
 _symmetry_equiv_pos_site_id
 _symmetry_equiv_pos_as_xyz
  1  'x, y, z'
loop_
 _atom_site_type_symbol
 _atom_site_label
 _atom_site_symmetry_multiplicity
 _atom_site_fract_x
 _atom_site_fract_y
 _atom_site_fract_z
 _atom_site_occupancy
  Mo  Mo0  1  -0.00566391  0.08184893  0.01126990  1
  Mo  Mo1  1  2.28983790  2.23077800  -0.00274646  1
  Mo  Mo2  1  2.26697553  0.03284931  1.57724964  1
  Mo  Mo3  1  -0.09420714  2.23028355  1.60901758  1
  Mo  Mo4  1  4.47479459  0.01815049  0.01076187  1
  Mo  Mo5  1  6.65369595  2.27205371  -0.02307922  1
  Mo  Mo6  1  6.69083406  0.02351176  1.55264004  1
  Mo  Mo7  1  4.48427386  2.20288100  1.57428730  1
  Mo  Mo8  1  8.93285964  -0.01838004  -0.03248403  1
  Mo  Mo9  1  11.18285375  2.24175697  0.03684010  1
  Mo  Mo10  1  11.16181895  0.00209685  1.66956861  1
  Mo  Mo11  1  8.96330831  2.25613511  1.59898892  1
