# generated using pymatgen
data_Mo
_symmetry_space_group_name_H-M   'P 1'
_cell_length_a   13.90139843
_cell_length_b   4.47385961
_cell_length_c   3.16349647
_cell_angle_alpha   90.00000000
_cell_angle_beta   78.18161721
_cell_angle_gamma   80.74004723
_symmetry_Int_Tables_number   1
_chemical_formula_structural   Mo
_chemical_formula_sum   Mo12
_cell_volume   189.95612993
_cell_formula_units_Z   12
loop_
 _symmetry_equiv_pos_site_id
 _symmetry_equiv_pos_as_xyz
  1  'x, y, z'
loop_
 _atom_site_type_symbol
 _atom_site_label
 _atom_site_symmetry_multiplicity
 _atom_site_fract_x
 _atom_site_fract_y
 _atom_site_fract_z
 _atom_site_occupancy
  Mo  Mo0  1  -0.06961643  0.01363394  0.04587485  1
  Mo  Mo1  1  2.22688634  2.27597278  0.02045879  1
  Mo  Mo2  1  2.24572969  -0.04257290  1.57420893  1
  Mo  Mo3  1  0.01014553  2.21870667  1.59906171  1
  Mo  Mo4  1  4.45064062  0.03249920  0.02676497  1
  Mo  Mo5  1  6.70663529  2.21579220  0.04096910  1
  Mo  Mo6  1  6.69335769  -0.04449357  1.64616128  1
  Mo  Mo7  1  4.53519416  2.22690850  1.54823096  1
  Mo  Mo8  1  8.95506052  0.03728290  0.02908368  1
  Mo  Mo9  1  11.23882010  2.22395005  0.00221513  1
  Mo  Mo10  1  11.19349745  -0.05742005  1.55165589  1
  Mo  Mo11  1  8.98020279  2.26678711  1.56360786  1
