# generated using pymatgen
data_Mo
_symmetry_space_group_name_H-M   'P 1'
_cell_length_a   13.68737848
_cell_length_b   4.47385961
_cell_length_c   3.16349647
_cell_angle_alpha   90.00000000
_cell_angle_beta   90.00000000
_cell_angle_gamma   78.69006753
_symmetry_Int_Tables_number   1
_chemical_formula_structural   Mo
_chemical_formula_sum   Mo12
_cell_volume   189.95612993
_cell_formula_units_Z   12
loop_
 _symmetry_equiv_pos_site_id
 _symmetry_equiv_pos_as_xyz
  1  'x, y, z'
loop_
 _atom_site_type_symbol
 _atom_site_label
 _atom_site_symmetry_multiplicity
 _atom_site_fract_x
 _atom_site_fract_y
 _atom_site_fract_z
 _atom_site_occupancy
  Mo  Mo0  1  0.10769513  0.02499099  0.03612461  1
  Mo  Mo1  1  2.25697509  2.26283528  -0.01270444  1
  Mo  Mo2  1  2.20318808  0.02410902  1.50145308  1
  Mo  Mo3  1  0.02944660  2.25796926  1.55831417  1
  Mo  Mo4  1  4.48136708  -0.03019259  -0.03712992  1
  Mo  Mo5  1  6.74878743  2.24452077  0.07872713  1
  Mo  Mo6  1  6.81447081  0.02719419  1.59379012  1
  Mo  Mo7  1  4.54124633  2.16905121  1.53563133  1
  Mo  Mo8  1  8.94235443  0.01553759  0.00664049  1
  Mo  Mo9  1  11.19198964  2.26906531  0.00290279  1
  Mo  Mo10  1  11.21006390  0.01311535  1.56197037  1
  Mo  Mo11  1  8.91771770  2.19939529  1.60103464  1
