# generated using pymatgen
data_Mo
_symmetry_space_group_name_H-M   'P 1'
_cell_length_a   13.69103380
_cell_length_b   4.47385961
_cell_length_c   3.16349647
_cell_angle_alpha   90.00000000
_cell_angle_beta   88.67598655
_cell_angle_gamma   78.69312696
_symmetry_Int_Tables_number   1
_chemical_formula_structural   Mo
_chemical_formula_sum   Mo12
_cell_volume   189.95612993
_cell_formula_units_Z   12
loop_
 _symmetry_equiv_pos_site_id
 _symmetry_equiv_pos_as_xyz
  1  'x, y, z'
loop_
 _atom_site_type_symbol
 _atom_site_label
 _atom_site_symmetry_multiplicity
 _atom_site_fract_x
 _atom_site_fract_y
 _atom_site_fract_z
 _atom_site_occupancy
  Mo  Mo0  1  0.06636602  0.03683647  0.04209362  1
  Mo  Mo1  1  2.20031306  2.28864180  0.01317650  1
  Mo  Mo2  1  2.21664504  -0.03593084  1.57657538  1
  Mo  Mo3  1  -0.08904950  2.27564830  1.58078601  1
  Mo  Mo4  1  4.45456621  -0.04413336  -0.02223945  1
  Mo  Mo5  1  6.75226196  2.16880546  0.00541570  1
  Mo  Mo6  1  6.69231098  0.00202829  1.63935455  1
  Mo  Mo7  1  4.49745831  2.20686676  1.55679573  1
  Mo  Mo8  1  8.98289157  0.00647391  -0.09957729  1
  Mo  Mo9  1  11.20099282  2.26592398  0.00115938  1
  Mo  Mo10  1  11.17306917  0.01250451  1.62142257  1
  Mo  Mo11  1  9.08412854  2.21391084  1.57362538  1
