# generated using pymatgen
data_Mo
_symmetry_space_group_name_H-M   'P 1'
_cell_length_a   13.74574709
_cell_length_b   4.47385961
_cell_length_c   3.16349647
_cell_angle_alpha   90.00000000
_cell_angle_beta   84.71801755
_cell_angle_gamma   78.73872246
_symmetry_Int_Tables_number   1
_chemical_formula_structural   Mo
_chemical_formula_sum   Mo12
_cell_volume   189.95612993
_cell_formula_units_Z   12
loop_
 _symmetry_equiv_pos_site_id
 _symmetry_equiv_pos_as_xyz
  1  'x, y, z'
loop_
 _atom_site_type_symbol
 _atom_site_label
 _atom_site_symmetry_multiplicity
 _atom_site_fract_x
 _atom_site_fract_y
 _atom_site_fract_z
 _atom_site_occupancy
  Mo  Mo0  1  -0.00976057  -0.02440292  -0.02891530  1
  Mo  Mo1  1  2.23929175  2.27693797  -0.00509818  1
  Mo  Mo2  1  2.17589815  0.01872774  1.55965454  1
  Mo  Mo3  1  -0.00814487  2.30475576  1.68415165  1
  Mo  Mo4  1  4.49596625  0.03782267  -0.05592395  1
  Mo  Mo5  1  6.76729855  2.18572924  0.00565655  1
  Mo  Mo6  1  6.73823456  -0.01202649  1.51908184  1
  Mo  Mo7  1  4.48559599  2.27252559  1.51290244  1
  Mo  Mo8  1  8.94404890  0.05754000  0.07301743  1
  Mo  Mo9  1  11.24638092  2.26148321  0.02629910  1
  Mo  Mo10  1  11.19024896  0.08313350  1.53054596  1
  Mo  Mo11  1  8.95341560  2.26202621  1.59255426  1
