# generated using pymatgen
data_Mo
_symmetry_space_group_name_H-M   'P 1'
_cell_length_a   13.81836116
_cell_length_b   4.47385961
_cell_length_c   3.16349647
_cell_angle_alpha   90.00000000
_cell_angle_beta   82.10485790
_cell_angle_gamma   78.79866706
_symmetry_Int_Tables_number   1
_chemical_formula_structural   Mo
_chemical_formula_sum   Mo12
_cell_volume   189.95612993
_cell_formula_units_Z   12
loop_
 _symmetry_equiv_pos_site_id
 _symmetry_equiv_pos_as_xyz
  1  'x, y, z'
loop_
 _atom_site_type_symbol
 _atom_site_label
 _atom_site_symmetry_multiplicity
 _atom_site_fract_x
 _atom_site_fract_y
 _atom_site_fract_z
 _atom_site_occupancy
  Mo  Mo0  1  0.01965404  -0.02601925  -0.05868367  1
  Mo  Mo1  1  2.25047247  2.19938603  -0.01714959  1
  Mo  Mo2  1  2.22323266  -0.00462649  1.60466208  1
  Mo  Mo3  1  -0.05788809  2.20224192  1.60697978  1
  Mo  Mo4  1  4.41525546  -0.00084666  0.02277888  1
  Mo  Mo5  1  6.73151420  2.24106684  -0.03443709  1
  Mo  Mo6  1  6.70766918  -0.03303865  1.57230176  1
  Mo  Mo7  1  4.37801305  2.16980922  1.57451582  1
  Mo  Mo8  1  8.97998949  -0.00538085  0.03777578  1
  Mo  Mo9  1  11.18704587  2.33159139  0.02828538  1
  Mo  Mo10  1  11.23269432  -0.04423919  1.65538121  1
  Mo  Mo11  1  8.96441294  2.25670714  1.57047950  1
