# generated using pymatgen
data_Mo
_symmetry_space_group_name_H-M   'P 1'
_cell_length_a   13.86535637
_cell_length_b   4.47385961
_cell_length_c   3.16349647
_cell_angle_alpha   90.00000000
_cell_angle_beta   80.80988803
_cell_angle_gamma   78.83712148
_symmetry_Int_Tables_number   1
_chemical_formula_structural   Mo
_chemical_formula_sum   Mo12
_cell_volume   189.95612993
_cell_formula_units_Z   12
loop_
 _symmetry_equiv_pos_site_id
 _symmetry_equiv_pos_as_xyz
  1  'x, y, z'
loop_
 _atom_site_type_symbol
 _atom_site_label
 _atom_site_symmetry_multiplicity
 _atom_site_fract_x
 _atom_site_fract_y
 _atom_site_fract_z
 _atom_site_occupancy
  Mo  Mo0  1  -0.04085658  0.00882256  0.04497387  1
  Mo  Mo1  1  2.28253210  2.21334720  0.00472596  1
  Mo  Mo2  1  2.21765619  -0.07738059  1.58541163  1
  Mo  Mo3  1  0.03589383  2.28922744  1.61242742  1
  Mo  Mo4  1  4.45236924  -0.01130385  -0.03538306  1
  Mo  Mo5  1  6.72686975  2.19138216  0.02169920  1
  Mo  Mo6  1  6.76864126  0.04869732  1.59054903  1
  Mo  Mo7  1  4.54573925  2.25145329  1.57413041  1
  Mo  Mo8  1  8.96272918  -0.00670457  -0.00404747  1
  Mo  Mo9  1  11.22462989  2.26613176  -0.00383744  1
  Mo  Mo10  1  11.23598610  0.06360716  1.52583279  1
  Mo  Mo11  1  8.94974683  2.20006517  1.58146914  1
