# generated using pymatgen
data_Mo
_symmetry_space_group_name_H-M   'P 1'
_cell_length_a   13.91938447
_cell_length_b   4.47385961
_cell_length_c   3.16349647
_cell_angle_alpha   90.00000000
_cell_angle_beta   79.52431831
_cell_angle_gamma   78.88100357
_symmetry_Int_Tables_number   1
_chemical_formula_structural   Mo
_chemical_formula_sum   Mo12
_cell_volume   189.95612993
_cell_formula_units_Z   12
loop_
 _symmetry_equiv_pos_site_id
 _symmetry_equiv_pos_as_xyz
  1  'x, y, z'
loop_
 _atom_site_type_symbol
 _atom_site_label
 _atom_site_symmetry_multiplicity
 _atom_site_fract_x
 _atom_site_fract_y
 _atom_site_fract_z
 _atom_site_occupancy
  Mo  Mo0  1  -0.00746926  0.09710353  -0.03743510  1
  Mo  Mo1  1  2.26135499  2.26619756  0.03870867  1
  Mo  Mo2  1  2.24724217  -0.00294716  1.57467871  1
  Mo  Mo3  1  -0.03337037  2.23071174  1.56815085  1
  Mo  Mo4  1  4.50643374  -0.00368476  0.02021458  1
  Mo  Mo5  1  6.64099565  2.22241510  -0.00123013  1
  Mo  Mo6  1  6.70577062  0.01190326  1.65424154  1
  Mo  Mo7  1  4.53024362  2.21873495  1.61597226  1
  Mo  Mo8  1  8.95904565  0.02031590  0.06279426  1
  Mo  Mo9  1  11.19106689  2.26550408  -0.03206747  1
  Mo  Mo10  1  11.16084972  0.05267035  1.62699572  1
  Mo  Mo11  1  8.92829045  2.25077807  1.54312140  1
