# generated using pymatgen
data_Mo
_symmetry_space_group_name_H-M   'P 1'
_cell_length_a   13.78210195
_cell_length_b   4.47385961
_cell_length_c   3.16349647
_cell_angle_alpha   90.00000000
_cell_angle_beta   90.00000000
_cell_angle_gamma   76.86597772
_symmetry_Int_Tables_number   1
_chemical_formula_structural   Mo
_chemical_formula_sum   Mo12
_cell_volume   189.95612993
_cell_formula_units_Z   12
loop_
 _symmetry_equiv_pos_site_id
 _symmetry_equiv_pos_as_xyz
  1  'x, y, z'
loop_
 _atom_site_type_symbol
 _atom_site_label
 _atom_site_symmetry_multiplicity
 _atom_site_fract_x
 _atom_site_fract_y
 _atom_site_fract_z
 _atom_site_occupancy
  Mo  Mo0  1  -0.04511106  0.01529058  0.05954211  1
  Mo  Mo1  1  2.22279051  2.20559688  -0.01827931  1
  Mo  Mo2  1  2.23457571  -0.01409120  1.55248460  1
  Mo  Mo3  1  -0.04710441  2.24643449  1.55827757  1
  Mo  Mo4  1  4.41654428  0.03078267  -0.04089886  1
  Mo  Mo5  1  6.70716942  2.25650470  0.01689607  1
  Mo  Mo6  1  6.76183698  0.01257189  1.56551221  1
  Mo  Mo7  1  4.47115625  2.19903641  1.57734480  1
  Mo  Mo8  1  8.97042097  0.03642105  -0.06641664  1
  Mo  Mo9  1  11.20385435  2.22457729  0.09527549  1
  Mo  Mo10  1  11.24635460  -0.02572036  1.54478939  1
  Mo  Mo11  1  8.88187409  2.25086262  1.57610828  1
