# generated using pymatgen
data_Mo
_symmetry_space_group_name_H-M   'P 1'
_cell_length_a   9.54026268
_cell_length_b   12.68476129
_cell_length_c   15.91663355
_cell_angle_alpha   90.00000000
_cell_angle_beta   90.00000000
_cell_angle_gamma   90.00000000
_symmetry_Int_Tables_number   1
_chemical_formula_structural   Mo
_chemical_formula_sum   Mo121
_cell_volume   1926.16660480
_cell_formula_units_Z   121
loop_
 _symmetry_equiv_pos_site_id
 _symmetry_equiv_pos_as_xyz
  1  'x, y, z'
loop_
 _atom_site_type_symbol
 _atom_site_label
 _atom_site_symmetry_multiplicity
 _atom_site_fract_x
 _atom_site_fract_y
 _atom_site_fract_z
 _atom_site_occupancy
  Mo  Mo0  1  8.96460032  12.45767235  0.00000000  1
  Mo  Mo1  1  1.59003926  1.82698375  2.03992897  1
  Mo  Mo2  1  3.75574352  12.45767235  0.00000000  1
  Mo  Mo3  1  4.79896258  1.62133662  1.65877034  1
  Mo  Mo4  1  6.36017688  12.66454079  0.00000000  1
  Mo  Mo5  1  7.92139119  1.62133662  1.65877034  1
  Mo  Mo6  1  0.01000880  3.14009295  0.00000000  1
  Mo  Mo7  1  1.59003926  4.78289686  1.60478437  1
  Mo  Mo8  1  3.17007964  3.14009295  0.00000000  1
  Mo  Mo9  1  4.77038586  4.76168774  1.59355425  1
  Mo  Mo10  1  6.36017688  3.16568093  0.00000000  1
  Mo  Mo11  1  7.94996790  4.76168774  1.59355425  1
  Mo  Mo12  1  0.00252206  6.32545388  0.00000000  1
  Mo  Mo13  1  1.59003926  7.93065528  1.59182654  1
  Mo  Mo14  1  3.17756638  6.32545388  0.00000000  1
  Mo  Mo15  1  4.76806239  7.90091683  1.60092184  1
  Mo  Mo16  1  6.36017688  6.32590071  0.00000000  1
  Mo  Mo17  1  7.95229138  7.90091683  1.60092184  1
  Mo  Mo18  1  9.52933309  9.48252605  0.00000000  1
  Mo  Mo19  1  1.59003926  11.09216588  1.59952180  1
  Mo  Mo20  1  3.19101075  9.48252605  0.00000000  1
  Mo  Mo21  1  4.84226455  10.98590179  1.72860358  1
  Mo  Mo22  1  6.36017688  9.46050272  0.00000000  1
  Mo  Mo23  1  7.87807928  10.98590179  1.72860358  1
  Mo  Mo24  1  9.51693131  12.67817381  3.22406561  1
  Mo  Mo25  1  1.59003926  1.59120099  4.87808971  1
  Mo  Mo26  1  3.20342245  12.67817381  3.22406561  1
  Mo  Mo27  1  4.77898469  1.59509330  4.81709361  1
  Mo  Mo28  1  6.36017688  12.68324772  3.23379639  1
  Mo  Mo29  1  7.94135914  1.59509330  4.81709361  1
  Mo  Mo30  1  9.47570458  3.25727934  3.28142757  1
  Mo  Mo31  1  1.59003926  4.78699769  4.80761106  1
  Mo  Mo32  1  3.24464919  3.25727934  3.28142757  1
  Mo  Mo33  1  4.78530970  4.78654094  4.80493013  1
  Mo  Mo34  1  6.36017688  3.18772412  3.21108793  1
  Mo  Mo35  1  7.93503414  4.78654094  4.80493013  1
  Mo  Mo36  1  9.53985822  6.35242205  3.19291718  1
  Mo  Mo37  1  1.59003926  7.93316741  4.78241032  1
  Mo  Mo38  1  3.18049555  6.35242205  3.19291718  1
  Mo  Mo39  1  4.76152887  7.92604806  4.79329291  1
  Mo  Mo40  1  6.36017688  6.33699181  3.19115969  1
  Mo  Mo41  1  7.95881497  7.92604806  4.79329291  1
  Mo  Mo42  1  0.00907544  9.49281288  3.20891340  1
  Mo  Mo43  1  1.59003926  11.10477618  4.78583596  1
  Mo  Mo44  1  3.17101300  9.49281288  3.20891340  1
  Mo  Mo45  1  4.76905533  11.09627664  4.81089768  1
  Mo  Mo46  1  6.36017688  9.45463446  3.25221537  1
  Mo  Mo47  1  7.95128851  11.09627664  4.81089768  1
  Mo  Mo48  1  9.53870641  0.00201566  6.38099877  1
  Mo  Mo49  1  1.59003926  1.59654299  7.95831850  1
  Mo  Mo50  1  3.18163742  0.00201566  6.38099877  1
  Mo  Mo51  1  4.77055466  1.59477556  7.95831850  1
  Mo  Mo52  1  6.36017688  12.68445910  6.38038315  1
  Mo  Mo53  1  7.94978918  1.59477556  7.95831850  1
  Mo  Mo54  1  9.53445664  3.18794257  6.38764151  1
  Mo  Mo55  1  1.59003926  4.77531083  7.95831850  1
  Mo  Mo56  1  3.18589712  3.18794257  6.38764151  1
  Mo  Mo57  1  4.77383135  4.77532076  7.95831850  1
  Mo  Mo58  1  6.36017688  3.18396089  6.38450383  1
  Mo  Mo59  1  7.94652241  4.77532076  7.95831850  1
  Mo  Mo60  1  9.53974900  6.35901515  6.38068103  1
  Mo  Mo61  1  1.59003926  7.94401028  7.95831850  1
  Mo  Mo62  1  3.18060477  6.35901515  6.38068103  1
  Mo  Mo63  1  4.76629496  7.93789379  7.95831850  1
  Mo  Mo64  1  6.36017688  6.35552001  6.38249810  1
  Mo  Mo65  1  7.95404887  7.93789379  7.95831850  1
  Mo  Mo66  1  0.00310789  9.51852994  6.37444538  1
  Mo  Mo67  1  1.59003926  11.10614643  7.95831850  1
  Mo  Mo68  1  3.17698055  9.51852994  6.37444538  1
  Mo  Mo69  1  4.77044544  11.10212504  7.95831850  1
  Mo  Mo70  1  6.36017688  9.51487593  6.38355061  1
  Mo  Mo71  1  7.94990833  11.10212504  7.95831850  1
  Mo  Mo72  1  9.53870641  0.00201566  9.53562831  1
  Mo  Mo73  1  1.59003926  1.59120099  11.03853737  1
  Mo  Mo74  1  3.18163742  0.00201566  9.53562831  1
  Mo  Mo75  1  4.77898469  1.59509330  11.09954340  1
  Mo  Mo76  1  6.36017688  12.68445910  9.53625386  1
  Mo  Mo77  1  7.94135914  1.59509330  11.09954340  1
  Mo  Mo78  1  9.53445664  3.18794257  9.52898556  1
  Mo  Mo79  1  1.59003926  4.78699769  11.10902595  1
  Mo  Mo80  1  3.18589712  3.18794257  9.52898556  1
  Mo  Mo81  1  4.78530970  4.78654094  11.11170687  1
  Mo  Mo82  1  6.36017688  3.18396089  9.53213317  1
  Mo  Mo83  1  7.93503414  4.78654094  11.11170687  1
  Mo  Mo84  1  9.53974900  6.35901515  9.53595598  1
  Mo  Mo85  1  1.59003926  7.93316741  11.13421675  1
  Mo  Mo86  1  3.18060477  6.35901515  9.53595598  1
  Mo  Mo87  1  4.76152887  7.92604806  11.12334409  1
  Mo  Mo88  1  6.36017688  6.35552001  9.53413890  1
  Mo  Mo89  1  7.95881497  7.92604806  11.12334409  1
  Mo  Mo90  1  0.00310789  9.51852994  9.54219162  1
  Mo  Mo91  1  1.59003926  11.10477618  11.13080105  1
  Mo  Mo92  1  3.17698055  9.51852994  9.54219162  1
  Mo  Mo93  1  4.76905533  11.09627664  11.10573933  1
  Mo  Mo94  1  6.36017688  9.51487593  9.53308639  1
  Mo  Mo95  1  7.95128851  11.09627664  11.10573933  1
  Mo  Mo96  1  9.51693131  12.67817381  12.69257140  1
  Mo  Mo97  1  1.59003926  1.82698375  13.87670804  1
  Mo  Mo98  1  3.20342245  12.67817381  12.69257140  1
  Mo  Mo99  1  4.79896258  1.62133662  14.25785674  1
  Mo  Mo100  1  6.36017688  12.68324772  12.68283069  1
  Mo  Mo101  1  7.92139119  1.62133662  14.25785674  1
  Mo  Mo102  1  9.47570458  3.25727934  12.63519951  1
  Mo  Mo103  1  1.59003926  4.78289686  14.31184271  1
  Mo  Mo104  1  3.24464919  3.25727934  12.63519951  1
  Mo  Mo105  1  4.77038586  4.76168774  14.32307282  1
  Mo  Mo106  1  6.36017688  3.18772412  12.70553915  1
  Mo  Mo107  1  7.94996790  4.76168774  14.32307282  1
  Mo  Mo108  1  9.53985822  6.35242205  12.72371982  1
  Mo  Mo109  1  1.59003926  7.93065528  14.32481046  1
  Mo  Mo110  1  3.18049555  6.35242205  12.72371982  1
  Mo  Mo111  1  4.76806239  7.90091683  14.31570523  1
  Mo  Mo112  1  6.36017688  6.33699181  12.72547732  1
  Mo  Mo113  1  7.95229138  7.90091683  14.31570523  1
  Mo  Mo114  1  0.00907544  9.49281288  12.70771368  1
  Mo  Mo115  1  1.59003926  11.09216588  14.31710527  1
  Mo  Mo116  1  3.17101300  9.49281288  12.70771368  1
  Mo  Mo117  1  4.84226455  10.98590179  14.18803343  1
  Mo  Mo118  1  6.36017688  9.45463446  12.66442164  1
  Mo  Mo119  1  7.87807928  10.98590179  14.18803343  1
  Mo  Mo120  1  1.59003926  0.61631584  0.00000000  1
