# generated using pymatgen
data_Mo
_symmetry_space_group_name_H-M   'P 1'
_cell_length_a   13.81473952
_cell_length_b   4.47385961
_cell_length_c   3.16349647
_cell_angle_alpha   90.00000000
_cell_angle_beta   86.06077544
_cell_angle_gamma   76.89756023
_symmetry_Int_Tables_number   1
_chemical_formula_structural   Mo
_chemical_formula_sum   Mo12
_cell_volume   189.95612993
_cell_formula_units_Z   12
loop_
 _symmetry_equiv_pos_site_id
 _symmetry_equiv_pos_as_xyz
  1  'x, y, z'
loop_
 _atom_site_type_symbol
 _atom_site_label
 _atom_site_symmetry_multiplicity
 _atom_site_fract_x
 _atom_site_fract_y
 _atom_site_fract_z
 _atom_site_occupancy
  Mo  Mo0  1  -0.00086583  0.03182428  -0.02631627  1
  Mo  Mo1  1  2.28749361  2.23953738  -0.04408796  1
  Mo  Mo2  1  2.20139071  0.02707113  1.52984029  1
  Mo  Mo3  1  -0.04978688  2.20940295  1.58914445  1
  Mo  Mo4  1  4.48362266  -0.02394423  -0.05509779  1
  Mo  Mo5  1  6.69844057  2.22971449  0.01133662  1
  Mo  Mo6  1  6.71218039  -0.00495956  1.57313188  1
  Mo  Mo7  1  4.52247562  2.22078242  1.58216455  1
  Mo  Mo8  1  8.93492281  0.04553979  -0.06955378  1
  Mo  Mo9  1  11.15013352  2.30826367  -0.01316980  1
  Mo  Mo10  1  11.21111065  0.03297281  1.57750054  1
  Mo  Mo11  1  8.94161440  2.27853377  1.56676060  1
