# generated using pymatgen
data_Mo
_symmetry_space_group_name_H-M   'P 1'
_cell_length_a   13.84007109
_cell_length_b   4.47385961
_cell_length_c   3.16349647
_cell_angle_alpha   90.00000000
_cell_angle_beta   84.75411703
_cell_angle_gamma   76.92196746
_symmetry_Int_Tables_number   1
_chemical_formula_structural   Mo
_chemical_formula_sum   Mo12
_cell_volume   189.95612993
_cell_formula_units_Z   12
loop_
 _symmetry_equiv_pos_site_id
 _symmetry_equiv_pos_as_xyz
  1  'x, y, z'
loop_
 _atom_site_type_symbol
 _atom_site_label
 _atom_site_symmetry_multiplicity
 _atom_site_fract_x
 _atom_site_fract_y
 _atom_site_fract_z
 _atom_site_occupancy
  Mo  Mo0  1  0.02473849  -0.03707676  0.06402603  1
  Mo  Mo1  1  2.16497769  2.20405922  0.02420438  1
  Mo  Mo2  1  2.31348016  0.04901566  1.63873670  1
  Mo  Mo3  1  0.00856633  2.14669781  1.62193016  1
  Mo  Mo4  1  4.48281099  -0.01735924  -0.01585479  1
  Mo  Mo5  1  6.69206379  2.24958376  0.00895468  1
  Mo  Mo6  1  6.70481916  -0.07834979  1.60520504  1
  Mo  Mo7  1  4.48618001  2.20778837  1.61503573  1
  Mo  Mo8  1  8.93782860  -0.00534378  -0.00513431  1
  Mo  Mo9  1  11.12471387  2.22594657  -0.03547367  1
  Mo  Mo10  1  11.11466628  0.05466116  1.54537039  1
  Mo  Mo11  1  8.94428135  2.28872346  1.62100893  1
