# generated using pymatgen
data_Mo
_symmetry_space_group_name_H-M   'P 1'
_cell_length_a   13.87257228
_cell_length_b   4.47385961
_cell_length_c   3.16349647
_cell_angle_alpha   90.00000000
_cell_angle_beta   83.45290683
_cell_angle_gamma   76.95314865
_symmetry_Int_Tables_number   1
_chemical_formula_structural   Mo
_chemical_formula_sum   Mo12
_cell_volume   189.95612993
_cell_formula_units_Z   12
loop_
 _symmetry_equiv_pos_site_id
 _symmetry_equiv_pos_as_xyz
  1  'x, y, z'
loop_
 _atom_site_type_symbol
 _atom_site_label
 _atom_site_symmetry_multiplicity
 _atom_site_fract_x
 _atom_site_fract_y
 _atom_site_fract_z
 _atom_site_occupancy
  Mo  Mo0  1  -0.05937284  -0.04898848  -0.00111976  1
  Mo  Mo1  1  2.21361273  2.23990217  -0.00213256  1
  Mo  Mo2  1  2.29694363  -0.00934580  1.57908265  1
  Mo  Mo3  1  -0.01359409  2.23103945  1.56892751  1
  Mo  Mo4  1  4.48891814  0.04705342  -0.02184922  1
  Mo  Mo5  1  6.73120132  2.20704607  -0.02893040  1
  Mo  Mo6  1  6.68483261  -0.02333792  1.50970743  1
  Mo  Mo7  1  4.49384280  2.20681210  1.61536723  1
  Mo  Mo8  1  8.94310638  -0.00483277  -0.02143172  1
  Mo  Mo9  1  11.16672658  2.15885168  0.02512194  1
  Mo  Mo10  1  11.15837282  0.03392550  1.56050976  1
  Mo  Mo11  1  8.92916604  2.19329965  1.59910594  1
