# generated using pymatgen
data_Mo
_symmetry_space_group_name_H-M   'P 1'
_cell_length_a   13.91219284
_cell_length_b   4.47385961
_cell_length_c   3.16349647
_cell_angle_alpha   90.00000000
_cell_angle_beta   82.15844333
_cell_angle_gamma   76.99095773
_symmetry_Int_Tables_number   1
_chemical_formula_structural   Mo
_chemical_formula_sum   Mo12
_cell_volume   189.95612993
_cell_formula_units_Z   12
loop_
 _symmetry_equiv_pos_site_id
 _symmetry_equiv_pos_as_xyz
  1  'x, y, z'
loop_
 _atom_site_type_symbol
 _atom_site_label
 _atom_site_symmetry_multiplicity
 _atom_site_fract_x
 _atom_site_fract_y
 _atom_site_fract_z
 _atom_site_occupancy
  Mo  Mo0  1  -0.07273313  -0.01761138  0.01624643  1
  Mo  Mo1  1  2.22558572  2.24100114  0.00153484  1
  Mo  Mo2  1  2.27142282  0.03712759  1.60025128  1
  Mo  Mo3  1  -0.02791866  2.26178610  1.51696993  1
  Mo  Mo4  1  4.47517535  -0.01613427  0.02758674  1
  Mo  Mo5  1  6.74514709  2.23719939  0.01458525  1
  Mo  Mo6  1  6.71857428  0.03227981  1.64558789  1
  Mo  Mo7  1  4.48564333  2.20885229  1.63401224  1
  Mo  Mo8  1  8.94106557  -0.01639070  0.03164057  1
  Mo  Mo9  1  11.20194148  2.23238982  -0.02952468  1
  Mo  Mo10  1  11.22182638  0.02288413  1.56991096  1
  Mo  Mo11  1  8.96064009  2.23703050  1.65864170  1
