# generated using pymatgen
data_Mo
_symmetry_space_group_name_H-M   'P 1'
_cell_length_a   13.95887216
_cell_length_b   4.47385961
_cell_length_c   3.16349647
_cell_angle_alpha   90.00000000
_cell_angle_beta   80.87198414
_cell_angle_gamma   77.03522011
_symmetry_Int_Tables_number   1
_chemical_formula_structural   Mo
_chemical_formula_sum   Mo12
_cell_volume   189.95612993
_cell_formula_units_Z   12
loop_
 _symmetry_equiv_pos_site_id
 _symmetry_equiv_pos_as_xyz
  1  'x, y, z'
loop_
 _atom_site_type_symbol
 _atom_site_label
 _atom_site_symmetry_multiplicity
 _atom_site_fract_x
 _atom_site_fract_y
 _atom_site_fract_z
 _atom_site_occupancy
  Mo  Mo0  1  0.00456139  0.02551380  0.02185683  1
  Mo  Mo1  1  2.24399121  2.24504987  -0.04167952  1
  Mo  Mo2  1  2.32301404  0.01347700  1.59608414  1
  Mo  Mo3  1  0.04331701  2.26622673  1.59083494  1
  Mo  Mo4  1  4.46435641  0.03387454  0.05252894  1
  Mo  Mo5  1  6.75202615  2.13618674  -0.01499046  1
  Mo  Mo6  1  6.67726181  0.04352148  1.57297495  1
  Mo  Mo7  1  4.51913800  2.26174467  1.49363079  1
  Mo  Mo8  1  8.92415158  0.09247894  -0.01146589  1
  Mo  Mo9  1  11.17759201  2.22598935  0.05580519  1
  Mo  Mo10  1  11.14611025  0.01992537  1.50630415  1
  Mo  Mo11  1  8.91987968  2.19422899  1.57085855  1
