# generated using pymatgen
data_Mo
_symmetry_space_group_name_H-M   'P 1'
_cell_length_a   14.01253969
_cell_length_b   4.47385961
_cell_length_c   3.16349647
_cell_angle_alpha   90.00000000
_cell_angle_beta   79.59473908
_cell_angle_gamma   77.08573483
_symmetry_Int_Tables_number   1
_chemical_formula_structural   Mo
_chemical_formula_sum   Mo12
_cell_volume   189.95612993
_cell_formula_units_Z   12
loop_
 _symmetry_equiv_pos_site_id
 _symmetry_equiv_pos_as_xyz
  1  'x, y, z'
loop_
 _atom_site_type_symbol
 _atom_site_label
 _atom_site_symmetry_multiplicity
 _atom_site_fract_x
 _atom_site_fract_y
 _atom_site_fract_z
 _atom_site_occupancy
  Mo  Mo0  1  -0.00029884  0.04793009  0.02587847  1
  Mo  Mo1  1  2.20657049  2.21547042  0.00633654  1
  Mo  Mo2  1  2.23319005  -0.02137050  1.58610767  1
  Mo  Mo3  1  -0.04145979  2.21725975  1.63225729  1
  Mo  Mo4  1  4.46232345  -0.00435662  0.02151903  1
  Mo  Mo5  1  6.63031177  2.30632380  0.01689052  1
  Mo  Mo6  1  6.79100159  0.05205199  1.59879270  1
  Mo  Mo7  1  4.48732619  2.21209490  1.61385988  1
  Mo  Mo8  1  8.90552048  0.00911185  -0.02164125  1
  Mo  Mo9  1  11.18820526  2.21343699  0.03449147  1
  Mo  Mo10  1  11.18018639  -0.01937608  1.62306228  1
  Mo  Mo11  1  8.91763983  2.23691643  1.54896803  1
