# generated using pymatgen
data_Mo
_symmetry_space_group_name_H-M   'P 1'
_cell_length_a   14.07311547
_cell_length_b   4.47385961
_cell_length_c   3.16349647
_cell_angle_alpha   90.00000000
_cell_angle_beta   78.32786420
_cell_angle_gamma   77.14227700
_symmetry_Int_Tables_number   1
_chemical_formula_structural   Mo
_chemical_formula_sum   Mo12
_cell_volume   189.95612993
_cell_formula_units_Z   12
loop_
 _symmetry_equiv_pos_site_id
 _symmetry_equiv_pos_as_xyz
  1  'x, y, z'
loop_
 _atom_site_type_symbol
 _atom_site_label
 _atom_site_symmetry_multiplicity
 _atom_site_fract_x
 _atom_site_fract_y
 _atom_site_fract_z
 _atom_site_occupancy
  Mo  Mo0  1  0.00586646  0.08056059  -0.01698392  1
  Mo  Mo1  1  2.32884735  2.26194177  -0.00220461  1
  Mo  Mo2  1  2.18441756  0.01611625  1.57436770  1
  Mo  Mo3  1  -0.00404513  2.28979428  1.61726021  1
  Mo  Mo4  1  4.49046996  -0.00546715  -0.03062256  1
  Mo  Mo5  1  6.71391207  2.22308409  -0.01699549  1
  Mo  Mo6  1  6.83843501  0.01993475  1.51951598  1
  Mo  Mo7  1  4.48118871  2.29937135  1.61421723  1
  Mo  Mo8  1  8.92919167  0.00933843  -0.04504079  1
  Mo  Mo9  1  11.19074219  2.24709471  -0.03395722  1
  Mo  Mo10  1  11.17255902  -0.02964447  1.54624876  1
  Mo  Mo11  1  8.91187117  2.22972757  1.63447957  1
