# generated using pymatgen
data_Mo
_symmetry_space_group_name_H-M   'P 1'
_cell_length_a   13.90499750
_cell_length_b   4.47385961
_cell_length_c   3.16349647
_cell_angle_alpha   90.00000000
_cell_angle_beta   87.39205132
_cell_angle_gamma   75.08440707
_symmetry_Int_Tables_number   1
_chemical_formula_structural   Mo
_chemical_formula_sum   Mo12
_cell_volume   189.95612993
_cell_formula_units_Z   12
loop_
 _symmetry_equiv_pos_site_id
 _symmetry_equiv_pos_as_xyz
  1  'x, y, z'
loop_
 _atom_site_type_symbol
 _atom_site_label
 _atom_site_symmetry_multiplicity
 _atom_site_fract_x
 _atom_site_fract_y
 _atom_site_fract_z
 _atom_site_occupancy
  Mo  Mo0  1  -0.04319306  0.03968053  0.01125862  1
  Mo  Mo1  1  2.17700014  2.21390952  0.06570430  1
  Mo  Mo2  1  2.14038158  -0.01706479  1.63211496  1
  Mo  Mo3  1  -0.03448427  2.20991954  1.57798013  1
  Mo  Mo4  1  4.53319627  -0.02541945  -0.01766433  1
  Mo  Mo5  1  6.69350825  2.32469526  0.08700380  1
  Mo  Mo6  1  6.75073685  0.01536487  1.61108529  1
  Mo  Mo7  1  4.53317011  2.19969658  1.62852994  1
  Mo  Mo8  1  8.89783214  -0.02537367  0.03609022  1
  Mo  Mo9  1  11.12780732  2.23135701  -0.03428592  1
  Mo  Mo10  1  11.17447893  -0.11134508  1.51126575  1
  Mo  Mo11  1  8.91987380  2.27382996  1.57483994  1
