# generated using pymatgen
data_Mo
_symmetry_space_group_name_H-M   'P 1'
_cell_length_a   13.94811388
_cell_length_b   4.47385961
_cell_length_c   3.16349647
_cell_angle_alpha   90.00000000
_cell_angle_beta   84.79486450
_cell_angle_gamma   75.13157953
_symmetry_Int_Tables_number   1
_chemical_formula_structural   Mo
_chemical_formula_sum   Mo12
_cell_volume   189.95612993
_cell_formula_units_Z   12
loop_
 _symmetry_equiv_pos_site_id
 _symmetry_equiv_pos_as_xyz
  1  'x, y, z'
loop_
 _atom_site_type_symbol
 _atom_site_label
 _atom_site_symmetry_multiplicity
 _atom_site_fract_x
 _atom_site_fract_y
 _atom_site_fract_z
 _atom_site_occupancy
  Mo  Mo0  1  -0.02780404  0.00042264  -0.03766899  1
  Mo  Mo1  1  2.25000870  2.24946501  -0.01602675  1
  Mo  Mo2  1  2.13216078  0.00803563  1.56554230  1
  Mo  Mo3  1  0.10690410  2.20176288  1.56568780  1
  Mo  Mo4  1  4.47791477  0.04758349  0.04664573  1
  Mo  Mo5  1  6.71751743  2.21738190  -0.03299876  1
  Mo  Mo6  1  6.70324434  0.01723768  1.48751340  1
  Mo  Mo7  1  4.45885043  2.22393272  1.61738423  1
  Mo  Mo8  1  8.93167776  -0.00397326  0.01026429  1
  Mo  Mo9  1  11.17648473  2.21707570  0.11053193  1
  Mo  Mo10  1  11.18711607  -0.03835448  1.61894224  1
  Mo  Mo11  1  8.89703248  2.20568701  1.56459377  1
