# generated using pymatgen
data_Mo
_symmetry_space_group_name_H-M   'P 1'
_cell_length_a   14.06600245
_cell_length_b   4.47385961
_cell_length_c   3.16349647
_cell_angle_alpha   90.00000000
_cell_angle_beta   80.94209278
_cell_angle_gamma   75.25903042
_symmetry_Int_Tables_number   1
_chemical_formula_structural   Mo
_chemical_formula_sum   Mo12
_cell_volume   189.95612993
_cell_formula_units_Z   12
loop_
 _symmetry_equiv_pos_site_id
 _symmetry_equiv_pos_as_xyz
  1  'x, y, z'
loop_
 _atom_site_type_symbol
 _atom_site_label
 _atom_site_symmetry_multiplicity
 _atom_site_fract_x
 _atom_site_fract_y
 _atom_site_fract_z
 _atom_site_occupancy
  Mo  Mo0  1  -0.01591442  0.02463453  0.02778440  1
  Mo  Mo1  1  2.18706660  2.25519672  0.05232872  1
  Mo  Mo2  1  2.20545358  -0.01370473  1.55495160  1
  Mo  Mo3  1  -0.01310505  2.17895004  1.60555260  1
  Mo  Mo4  1  4.48032563  -0.07567565  0.01357962  1
  Mo  Mo5  1  6.71756279  2.24903822  -0.02332944  1
  Mo  Mo6  1  6.71219404  0.01155114  1.64209675  1
  Mo  Mo7  1  4.49681340  2.22991574  1.58776830  1
  Mo  Mo8  1  8.95382216  0.03399792  -0.03647960  1
  Mo  Mo9  1  11.22708150  2.25181644  -0.03496283  1
  Mo  Mo10  1  11.19540388  -0.00169743  1.52246247  1
  Mo  Mo11  1  8.92436901  2.25775077  1.56458048  1
