# generated using pymatgen
data_Mo
_symmetry_space_group_name_H-M   'P 1'
_cell_length_a   14.11926278
_cell_length_b   4.47385961
_cell_length_c   3.16349647
_cell_angle_alpha   90.00000000
_cell_angle_beta   79.67425530
_cell_angle_gamma   75.31588878
_symmetry_Int_Tables_number   1
_chemical_formula_structural   Mo
_chemical_formula_sum   Mo12
_cell_volume   189.95612993
_cell_formula_units_Z   12
loop_
 _symmetry_equiv_pos_site_id
 _symmetry_equiv_pos_as_xyz
  1  'x, y, z'
loop_
 _atom_site_type_symbol
 _atom_site_label
 _atom_site_symmetry_multiplicity
 _atom_site_fract_x
 _atom_site_fract_y
 _atom_site_fract_z
 _atom_site_occupancy
  Mo  Mo0  1  -0.06480414  0.01972356  -0.03034754  1
  Mo  Mo1  1  2.24462703  2.23756454  0.01840031  1
  Mo  Mo2  1  2.22642074  -0.04705127  1.55657554  1
  Mo  Mo3  1  -0.02120637  2.22186967  1.61520663  1
  Mo  Mo4  1  4.46704935  0.05521417  0.05942382  1
  Mo  Mo5  1  6.66134093  2.18802359  -0.00858483  1
  Mo  Mo6  1  6.76885025  -0.00156796  1.57034075  1
  Mo  Mo7  1  4.45295193  2.28614786  1.56532022  1
  Mo  Mo8  1  8.93282319  -0.04108195  0.00511440  1
  Mo  Mo9  1  11.20843017  2.20225791  0.02748638  1
  Mo  Mo10  1  11.15365572  -0.01387206  1.56063603  1
  Mo  Mo11  1  8.92400952  2.20222091  1.60623650  1
