# generated using pymatgen
data_Mo
_symmetry_space_group_name_H-M   'P 1'
_cell_length_a   14.17938264
_cell_length_b   4.47385961
_cell_length_c   3.16349647
_cell_angle_alpha   90.00000000
_cell_angle_beta   78.41655724
_cell_angle_gamma   75.37953934
_symmetry_Int_Tables_number   1
_chemical_formula_structural   Mo
_chemical_formula_sum   Mo12
_cell_volume   189.95612993
_cell_formula_units_Z   12
loop_
 _symmetry_equiv_pos_site_id
 _symmetry_equiv_pos_as_xyz
  1  'x, y, z'
loop_
 _atom_site_type_symbol
 _atom_site_label
 _atom_site_symmetry_multiplicity
 _atom_site_fract_x
 _atom_site_fract_y
 _atom_site_fract_z
 _atom_site_occupancy
  Mo  Mo0  1  -0.01701099  -0.03234834  -0.04160490  1
  Mo  Mo1  1  2.24302199  2.26988561  -0.00047872  1
  Mo  Mo2  1  2.19964041  -0.01199438  1.50735113  1
  Mo  Mo3  1  0.03299961  2.26452033  1.55227662  1
  Mo  Mo4  1  4.47783439  0.00863519  -0.00413036  1
  Mo  Mo5  1  6.73995902  2.29597632  0.04479601  1
  Mo  Mo6  1  6.75130731  -0.00174708  1.60707212  1
  Mo  Mo7  1  4.50549788  2.23537235  1.61416784  1
  Mo  Mo8  1  8.90133194  0.00348683  -0.00133101  1
  Mo  Mo9  1  11.18010416  2.24914134  0.01056572  1
  Mo  Mo10  1  11.14716633  -0.00489796  1.56652610  1
  Mo  Mo11  1  8.97551405  2.22055325  1.59586380  1
