# generated using pymatgen
data_Mo
_symmetry_space_group_name_H-M   'P 1'
_cell_length_a   14.01253969
_cell_length_b   4.47385961
_cell_length_c   3.16349647
_cell_angle_alpha   90.00000000
_cell_angle_beta   90.00000000
_cell_angle_gamma   73.30075578
_symmetry_Int_Tables_number   1
_chemical_formula_structural   Mo
_chemical_formula_sum   Mo12
_cell_volume   189.95612993
_cell_formula_units_Z   12
loop_
 _symmetry_equiv_pos_site_id
 _symmetry_equiv_pos_as_xyz
  1  'x, y, z'
loop_
 _atom_site_type_symbol
 _atom_site_label
 _atom_site_symmetry_multiplicity
 _atom_site_fract_x
 _atom_site_fract_y
 _atom_site_fract_z
 _atom_site_occupancy
  Mo  Mo0  1  0.01791265  0.00600221  0.06298729  1
  Mo  Mo1  1  2.18701510  2.20716907  0.01518457  1
  Mo  Mo2  1  2.20539324  -0.03342103  1.62876715  1
  Mo  Mo3  1  -0.01020239  2.20979205  1.63747753  1
  Mo  Mo4  1  4.41787735  -0.01213893  -0.03406670  1
  Mo  Mo5  1  6.71880811  2.25416576  -0.05643694  1
  Mo  Mo6  1  6.71215975  0.08461204  1.55093035  1
  Mo  Mo7  1  4.45908844  2.17564336  1.59156618  1
  Mo  Mo8  1  8.90056181  0.01509843  0.00859325  1
  Mo  Mo9  1  11.22196119  2.19841726  0.03797054  1
  Mo  Mo10  1  11.16825702  0.01285538  1.64822699  1
  Mo  Mo11  1  8.89636697  2.18992411  1.57118892  1
