# generated using pymatgen
data_Mo
_symmetry_space_group_name_H-M   'P 1'
_cell_length_a   14.02681635
_cell_length_b   4.47385961
_cell_length_c   3.16349647
_cell_angle_alpha   90.00000000
_cell_angle_beta   87.41471605
_cell_angle_gamma   73.31824988
_symmetry_Int_Tables_number   1
_chemical_formula_structural   Mo
_chemical_formula_sum   Mo12
_cell_volume   189.95612993
_cell_formula_units_Z   12
loop_
 _symmetry_equiv_pos_site_id
 _symmetry_equiv_pos_as_xyz
  1  'x, y, z'
loop_
 _atom_site_type_symbol
 _atom_site_label
 _atom_site_symmetry_multiplicity
 _atom_site_fract_x
 _atom_site_fract_y
 _atom_site_fract_z
 _atom_site_occupancy
  Mo  Mo0  1  -0.04093223  -0.00889643  0.06501933  1
  Mo  Mo1  1  2.22033166  2.21169503  -0.03974594  1
  Mo  Mo2  1  2.27405824  0.00544954  1.60443103  1
  Mo  Mo3  1  -0.00660804  2.27966354  1.55279600  1
  Mo  Mo4  1  4.49115436  0.00794834  -0.00656179  1
  Mo  Mo5  1  6.67015109  2.14952160  -0.08421996  1
  Mo  Mo6  1  6.84163070  -0.01475667  1.53924444  1
  Mo  Mo7  1  4.45835391  2.24250667  1.58005093  1
  Mo  Mo8  1  8.98160478  0.01550121  0.01525991  1
  Mo  Mo9  1  11.14179771  2.28850793  -0.03562554  1
  Mo  Mo10  1  11.19175988  0.04954026  1.52484360  1
  Mo  Mo11  1  8.95720169  2.29438449  1.54968747  1
