# generated using pymatgen
data_Mo
_symmetry_space_group_name_H-M   'P 1'
_cell_length_a   14.04464177
_cell_length_b   4.47385961
_cell_length_c   3.16349647
_cell_angle_alpha   90.00000000
_cell_angle_beta   86.12535745
_cell_angle_gamma   73.34004033
_symmetry_Int_Tables_number   1
_chemical_formula_structural   Mo
_chemical_formula_sum   Mo12
_cell_volume   189.95612993
_cell_formula_units_Z   12
loop_
 _symmetry_equiv_pos_site_id
 _symmetry_equiv_pos_as_xyz
  1  'x, y, z'
loop_
 _atom_site_type_symbol
 _atom_site_label
 _atom_site_symmetry_multiplicity
 _atom_site_fract_x
 _atom_site_fract_y
 _atom_site_fract_z
 _atom_site_occupancy
  Mo  Mo0  1  -0.00892465  0.05320432  0.03510595  1
  Mo  Mo1  1  2.24867280  2.26798634  0.01337271  1
  Mo  Mo2  1  2.27553816  0.04944729  1.55490842  1
  Mo  Mo3  1  -0.03358227  2.27414190  1.55741602  1
  Mo  Mo4  1  4.45621955  -0.06202291  0.01453048  1
  Mo  Mo5  1  6.72484724  2.20047422  0.05244928  1
  Mo  Mo6  1  6.69010557  -0.04857883  1.58290554  1
  Mo  Mo7  1  4.52509589  2.26106647  1.61571318  1
  Mo  Mo8  1  8.98554776  -0.00360005  0.00863201  1
  Mo  Mo9  1  11.15396542  2.21569676  0.01889010  1
  Mo  Mo10  1  11.18794039  0.00793179  1.56889029  1
  Mo  Mo11  1  8.91326888  2.27752347  1.59703238  1
