# generated using pymatgen
data_Mo
_symmetry_space_group_name_H-M   'P 1'
_cell_length_a   14.10153169
_cell_length_b   4.47385961
_cell_length_c   3.16349647
_cell_angle_alpha   90.00000000
_cell_angle_beta   83.55966240
_cell_angle_gamma   73.40919978
_symmetry_Int_Tables_number   1
_chemical_formula_structural   Mo
_chemical_formula_sum   Mo12
_cell_volume   189.95612993
_cell_formula_units_Z   12
loop_
 _symmetry_equiv_pos_site_id
 _symmetry_equiv_pos_as_xyz
  1  'x, y, z'
loop_
 _atom_site_type_symbol
 _atom_site_label
 _atom_site_symmetry_multiplicity
 _atom_site_fract_x
 _atom_site_fract_y
 _atom_site_fract_z
 _atom_site_occupancy
  Mo  Mo0  1  -0.00622198  -0.00613270  -0.01983214  1
  Mo  Mo1  1  2.22058062  2.20865454  -0.05018943  1
  Mo  Mo2  1  2.22296117  -0.09041507  1.55749854  1
  Mo  Mo3  1  0.01541223  2.23282584  1.54462369  1
  Mo  Mo4  1  4.50881674  -0.02714844  -0.03723812  1
  Mo  Mo5  1  6.71360976  2.22270658  0.00466367  1
  Mo  Mo6  1  6.67403266  0.01864974  1.51891754  1
  Mo  Mo7  1  4.47745061  2.24140532  1.57808700  1
  Mo  Mo8  1  8.97261358  -0.00818529  0.04056367  1
  Mo  Mo9  1  11.24926292  2.23131884  0.04765798  1
  Mo  Mo10  1  11.17009617  0.08092918  1.59128232  1
  Mo  Mo11  1  8.95044789  2.25172478  1.57793189  1
