# generated using pymatgen
data_Mo
_symmetry_space_group_name_H-M   'P 1'
_cell_length_a   14.14051074
_cell_length_b   4.47385961
_cell_length_c   3.16349647
_cell_angle_alpha   90.00000000
_cell_angle_beta   82.28583309
_cell_angle_gamma   73.45625002
_symmetry_Int_Tables_number   1
_chemical_formula_structural   Mo
_chemical_formula_sum   Mo12
_cell_volume   189.95612993
_cell_formula_units_Z   12
loop_
 _symmetry_equiv_pos_site_id
 _symmetry_equiv_pos_as_xyz
  1  'x, y, z'
loop_
 _atom_site_type_symbol
 _atom_site_label
 _atom_site_symmetry_multiplicity
 _atom_site_fract_x
 _atom_site_fract_y
 _atom_site_fract_z
 _atom_site_occupancy
  Mo  Mo0  1  0.04339776  0.04239535  0.17966392  1
  Mo  Mo1  1  2.21036560  2.22070132  0.03925500  1
  Mo  Mo2  1  2.26880110  0.04085590  1.58305658  1
  Mo  Mo3  1  0.04514023  2.24856492  1.54967122  1
  Mo  Mo4  1  4.47886164  0.04064173  0.05080349  1
  Mo  Mo5  1  6.70646544  2.17201633  0.00841462  1
  Mo  Mo6  1  6.73034019  0.08026722  1.63679284  1
  Mo  Mo7  1  4.42330285  2.24521610  1.59034245  1
  Mo  Mo8  1  9.00626130  0.01540926  -0.07059520  1
  Mo  Mo9  1  11.20829333  2.19303063  -0.02136873  1
  Mo  Mo10  1  11.15772460  -0.00663478  1.56418073  1
  Mo  Mo11  1  8.93620096  2.28248522  1.62222277  1
