# generated using pymatgen
data_Mo
_symmetry_space_group_name_H-M   'P 1'
_cell_length_a   14.23924867
_cell_length_b   4.47385961
_cell_length_c   3.16349647
_cell_angle_alpha   90.00000000
_cell_angle_beta   79.76220648
_cell_angle_gamma   73.57422999
_symmetry_Int_Tables_number   1
_chemical_formula_structural   Mo
_chemical_formula_sum   Mo12
_cell_volume   189.95612993
_cell_formula_units_Z   12
loop_
 _symmetry_equiv_pos_site_id
 _symmetry_equiv_pos_as_xyz
  1  'x, y, z'
loop_
 _atom_site_type_symbol
 _atom_site_label
 _atom_site_symmetry_multiplicity
 _atom_site_fract_x
 _atom_site_fract_y
 _atom_site_fract_z
 _atom_site_occupancy
  Mo  Mo0  1  0.06555668  -0.00233954  -0.01181692  1
  Mo  Mo1  1  2.22483662  2.19685547  -0.03342809  1
  Mo  Mo2  1  2.22586939  -0.00844719  1.57541826  1
  Mo  Mo3  1  -0.03004566  2.18477145  1.58999729  1
  Mo  Mo4  1  4.40661196  0.06835924  -0.00087834  1
  Mo  Mo5  1  6.71330615  2.12414342  0.01798076  1
  Mo  Mo6  1  6.76118256  0.00328194  1.54869093  1
  Mo  Mo7  1  4.46754764  2.19150695  1.59343073  1
  Mo  Mo8  1  8.97222501  -0.07066625  0.02798887  1
  Mo  Mo9  1  11.20033450  2.24129518  0.02693934  1
  Mo  Mo10  1  11.25087845  -0.02887984  1.55243261  1
  Mo  Mo11  1  8.96958132  2.28344836  1.57690827  1
