# generated using pymatgen
data_Mo
_symmetry_space_group_name_H-M   'P 1'
_cell_length_a   14.29886406
_cell_length_b   4.47385961
_cell_length_c   3.16349647
_cell_angle_alpha   90.00000000
_cell_angle_beta   78.51467203
_cell_angle_gamma   73.64464017
_symmetry_Int_Tables_number   1
_chemical_formula_structural   Mo
_chemical_formula_sum   Mo12
_cell_volume   189.95612993
_cell_formula_units_Z   12
loop_
 _symmetry_equiv_pos_site_id
 _symmetry_equiv_pos_as_xyz
  1  'x, y, z'
loop_
 _atom_site_type_symbol
 _atom_site_label
 _atom_site_symmetry_multiplicity
 _atom_site_fract_x
 _atom_site_fract_y
 _atom_site_fract_z
 _atom_site_occupancy
  Mo  Mo0  1  -0.01858680  0.01177652  0.00737954  1
  Mo  Mo1  1  2.20398296  2.23565954  0.03984796  1
  Mo  Mo2  1  2.21602394  -0.01182449  1.55360193  1
  Mo  Mo3  1  0.05145889  2.30564304  1.58388865  1
  Mo  Mo4  1  4.46331019  0.01021394  0.03738921  1
  Mo  Mo5  1  6.71160843  2.20985903  -0.02002704  1
  Mo  Mo6  1  6.64292649  -0.03114367  1.55612589  1
  Mo  Mo7  1  4.49119713  2.32582124  1.60975639  1
  Mo  Mo8  1  8.93862557  0.11931334  0.00037566  1
  Mo  Mo9  1  11.16341931  2.27584843  -0.04228317  1
  Mo  Mo10  1  11.23286527  0.00289362  1.59552843  1
  Mo  Mo11  1  8.95290648  2.24255491  1.55537076  1
