# generated using pymatgen
data_Mo
_symmetry_space_group_name_H-M   'P 1'
_cell_length_a   15.52371265
_cell_length_b   2.73966831
_cell_length_c   4.47385961
_cell_angle_alpha   90.00000000
_cell_angle_beta   86.69569481
_cell_angle_gamma   90.00000000
_symmetry_Int_Tables_number   1
_chemical_formula_structural   Mo
_chemical_formula_sum   Mo12
_cell_volume   189.95613004
_cell_formula_units_Z   12
loop_
 _symmetry_equiv_pos_site_id
 _symmetry_equiv_pos_as_xyz
  1  'x, y, z'
loop_
 _atom_site_type_symbol
 _atom_site_label
 _atom_site_symmetry_multiplicity
 _atom_site_fract_x
 _atom_site_fract_y
 _atom_site_fract_z
 _atom_site_occupancy
  Mo  Mo0  1  0.00516184  0.03590149  0.04001706  1
  Mo  Mo1  1  5.18474279  0.90024400  -0.01044985  1
  Mo  Mo2  1  2.56830785  1.88527895  0.05169735  1
  Mo  Mo3  1  3.85356741  -0.02135341  2.25501174  1
  Mo  Mo4  1  1.27821193  0.88270343  2.27499197  1
  Mo  Mo5  1  6.46769327  1.77659590  2.31228352  1
  Mo  Mo6  1  7.76625953  0.01263147  0.01828837  1
  Mo  Mo7  1  12.98612713  1.01844278  -0.05466377  1
  Mo  Mo8  1  10.34308918  1.89415276  0.01977840  1
  Mo  Mo9  1  11.68518146  0.02155120  2.20982235  1
  Mo  Mo10  1  9.02286392  0.94469766  2.23086889  1
  Mo  Mo11  1  14.23718649  1.81215937  2.27868068  1
