# generated using pymatgen
data_Mo
_symmetry_space_group_name_H-M   'P 1'
_cell_length_a   15.90581360
_cell_length_b   2.73966831
_cell_length_c   4.47385961
_cell_angle_alpha   90.00000000
_cell_angle_beta   76.99608805
_cell_angle_gamma   90.00000000
_symmetry_Int_Tables_number   1
_chemical_formula_structural   Mo
_chemical_formula_sum   Mo12
_cell_volume   189.95613004
_cell_formula_units_Z   12
loop_
 _symmetry_equiv_pos_site_id
 _symmetry_equiv_pos_as_xyz
  1  'x, y, z'
loop_
 _atom_site_type_symbol
 _atom_site_label
 _atom_site_symmetry_multiplicity
 _atom_site_fract_x
 _atom_site_fract_y
 _atom_site_fract_z
 _atom_site_occupancy
  Mo  Mo0  1  -0.03314800  0.04924296  -0.09849980  1
  Mo  Mo1  1  5.12464497  0.95279586  0.00709089  1
  Mo  Mo2  1  2.56352546  1.80885654  -0.01001053  1
  Mo  Mo3  1  3.85583041  -0.02679984  2.24375082  1
  Mo  Mo4  1  1.21817846  0.94495485  2.22044411  1
  Mo  Mo5  1  6.44781536  1.80047904  2.24714328  1
  Mo  Mo6  1  7.76504459  -0.04442321  0.01827108  1
  Mo  Mo7  1  12.91088643  0.90211320  0.01797980  1
  Mo  Mo8  1  10.34722853  1.84154156  -0.00194814  1
  Mo  Mo9  1  11.67444087  -0.00709116  2.18017705  1
  Mo  Mo10  1  9.01075742  0.93390146  2.27455380  1
  Mo  Mo11  1  14.18103038  1.85096224  2.28285547  1
