# generated using pymatgen
data_Mo
_symmetry_space_group_name_H-M   'P 1'
_cell_length_a   16.01241792
_cell_length_b   2.73966831
_cell_length_c   4.47385961
_cell_angle_alpha   90.00000000
_cell_angle_beta   75.43610884
_cell_angle_gamma   90.00000000
_symmetry_Int_Tables_number   1
_chemical_formula_structural   Mo
_chemical_formula_sum   Mo12
_cell_volume   189.95613004
_cell_formula_units_Z   12
loop_
 _symmetry_equiv_pos_site_id
 _symmetry_equiv_pos_as_xyz
  1  'x, y, z'
loop_
 _atom_site_type_symbol
 _atom_site_label
 _atom_site_symmetry_multiplicity
 _atom_site_fract_x
 _atom_site_fract_y
 _atom_site_fract_z
 _atom_site_occupancy
  Mo  Mo0  1  -0.05166514  -0.00368176  0.00278799  1
  Mo  Mo1  1  5.23977348  0.96774012  -0.00726414  1
  Mo  Mo2  1  2.53643332  1.86734389  -0.03320026  1
  Mo  Mo3  1  3.88194765  -0.02579817  2.26992913  1
  Mo  Mo4  1  1.23160022  0.94784174  2.28562418  1
  Mo  Mo5  1  6.36866132  1.82756971  2.24927766  1
  Mo  Mo6  1  7.77101220  0.01166444  0.02143114  1
  Mo  Mo7  1  12.95740539  0.84426990  -0.00770516  1
  Mo  Mo8  1  10.32401258  1.78133382  0.08819363  1
  Mo  Mo9  1  11.57676178  0.02222517  2.20549718  1
  Mo  Mo10  1  9.07232936  0.91173209  2.24532799  1
  Mo  Mo11  1  14.23266026  1.80470030  2.24329434  1
