# generated using pymatgen
data_Mo
_symmetry_space_group_name_H-M   'P 1'
_cell_length_a   15.50032566
_cell_length_b   2.73966831
_cell_length_c   4.47385961
_cell_angle_alpha   90.00000000
_cell_angle_beta   90.00000000
_cell_angle_gamma   88.98724963
_symmetry_Int_Tables_number   1
_chemical_formula_structural   Mo
_chemical_formula_sum   Mo12
_cell_volume   189.95613004
_cell_formula_units_Z   12
loop_
 _symmetry_equiv_pos_site_id
 _symmetry_equiv_pos_as_xyz
  1  'x, y, z'
loop_
 _atom_site_type_symbol
 _atom_site_label
 _atom_site_symmetry_multiplicity
 _atom_site_fract_x
 _atom_site_fract_y
 _atom_site_fract_z
 _atom_site_occupancy
  Mo  Mo0  1  -0.03296770  0.00240235  0.04785386  1
  Mo  Mo1  1  5.19288004  0.84679236  0.03761590  1
  Mo  Mo2  1  2.58117815  1.90308698  0.00395390  1
  Mo  Mo3  1  3.89885499  -0.03934417  2.30701224  1
  Mo  Mo4  1  1.35685567  0.81973394  2.27749252  1
  Mo  Mo5  1  6.45131234  1.83402946  2.20904120  1
  Mo  Mo6  1  7.72026012  -0.01019426  -0.02579942  1
  Mo  Mo7  1  12.88078033  0.90960186  -0.03328310  1
  Mo  Mo8  1  10.30976040  1.77892062  -0.01080900  1
  Mo  Mo9  1  11.51712802  0.05847767  2.20514222  1
  Mo  Mo10  1  9.06702025  0.94210437  2.25484893  1
  Mo  Mo11  1  14.21983303  1.86021886  2.23818201  1
