# generated using pymatgen
data_Mo
_symmetry_space_group_name_H-M   'P 1'
_cell_length_a   15.50678076
_cell_length_b   2.73966831
_cell_length_c   4.47385961
_cell_angle_alpha   90.00000000
_cell_angle_beta   88.34673070
_cell_angle_gamma   88.98767126
_symmetry_Int_Tables_number   1
_chemical_formula_structural   Mo
_chemical_formula_sum   Mo12
_cell_volume   189.95613004
_cell_formula_units_Z   12
loop_
 _symmetry_equiv_pos_site_id
 _symmetry_equiv_pos_as_xyz
  1  'x, y, z'
loop_
 _atom_site_type_symbol
 _atom_site_label
 _atom_site_symmetry_multiplicity
 _atom_site_fract_x
 _atom_site_fract_y
 _atom_site_fract_z
 _atom_site_occupancy
  Mo  Mo0  1  0.09534665  -0.00151598  -0.04191560  1
  Mo  Mo1  1  5.13090441  0.94059828  -0.01130408  1
  Mo  Mo2  1  2.52233669  1.85417055  -0.00125306  1
  Mo  Mo3  1  3.88272400  -0.03490408  2.27482534  1
  Mo  Mo4  1  1.25583504  0.92879750  2.19770388  1
  Mo  Mo5  1  6.51114150  1.86353906  2.28754514  1
  Mo  Mo6  1  7.74446208  0.12391319  -0.00589723  1
  Mo  Mo7  1  12.97244172  0.94047045  -0.05500799  1
  Mo  Mo8  1  10.26578674  1.86447074  0.00633034  1
  Mo  Mo9  1  11.67503450  0.05586695  2.26715755  1
  Mo  Mo10  1  9.07574185  0.92881837  2.24623662  1
  Mo  Mo11  1  14.21877236  1.80433525  2.29851586  1
