# generated using pymatgen
data_Mo
_symmetry_space_group_name_H-M   'P 1'
_cell_length_a   15.52612998
_cell_length_b   2.73966831
_cell_length_c   4.47385961
_cell_angle_alpha   90.00000000
_cell_angle_beta   86.69620984
_cell_angle_gamma   88.98893299
_symmetry_Int_Tables_number   1
_chemical_formula_structural   Mo
_chemical_formula_sum   Mo12
_cell_volume   189.95613004
_cell_formula_units_Z   12
loop_
 _symmetry_equiv_pos_site_id
 _symmetry_equiv_pos_as_xyz
  1  'x, y, z'
loop_
 _atom_site_type_symbol
 _atom_site_label
 _atom_site_symmetry_multiplicity
 _atom_site_fract_x
 _atom_site_fract_y
 _atom_site_fract_z
 _atom_site_occupancy
  Mo  Mo0  1  0.05553671  -0.05567163  -0.02730902  1
  Mo  Mo1  1  5.15866082  1.02192353  -0.02236228  1
  Mo  Mo2  1  2.64517745  1.86156452  -0.00012211  1
  Mo  Mo3  1  3.86478734  0.01878737  2.21257460  1
  Mo  Mo4  1  1.25777082  0.89056353  2.21306557  1
  Mo  Mo5  1  6.41407248  1.84799893  2.23599150  1
  Mo  Mo6  1  7.73895988  0.02044765  -0.01279843  1
  Mo  Mo7  1  12.85752380  0.90735986  0.08427178  1
  Mo  Mo8  1  10.31994624  1.78808538  -0.02065687  1
  Mo  Mo9  1  11.63275096  0.04145497  2.23693929  1
  Mo  Mo10  1  9.05646165  0.80709488  2.23093627  1
  Mo  Mo11  1  14.17781340  1.82668819  2.26193280  1
