# generated using pymatgen
data_Mo
_symmetry_space_group_name_H-M   'P 1'
_cell_length_a   15.90817287
_cell_length_b   2.73966831
_cell_length_c   4.47385961
_cell_angle_alpha   90.00000000
_cell_angle_beta   76.99805040
_cell_angle_gamma   89.01321671
_symmetry_Int_Tables_number   1
_chemical_formula_structural   Mo
_chemical_formula_sum   Mo12
_cell_volume   189.95613004
_cell_formula_units_Z   12
loop_
 _symmetry_equiv_pos_site_id
 _symmetry_equiv_pos_as_xyz
  1  'x, y, z'
loop_
 _atom_site_type_symbol
 _atom_site_label
 _atom_site_symmetry_multiplicity
 _atom_site_fract_x
 _atom_site_fract_y
 _atom_site_fract_z
 _atom_site_occupancy
  Mo  Mo0  1  -0.04321116  0.00905880  0.07510303  1
  Mo  Mo1  1  5.21943685  0.91858286  -0.00353100  1
  Mo  Mo2  1  2.60452884  1.89454846  -0.05700110  1
  Mo  Mo3  1  3.90219014  -0.02779750  2.17913843  1
  Mo  Mo4  1  1.27333584  0.87230529  2.15781950  1
  Mo  Mo5  1  6.53464888  1.89716645  2.22301676  1
  Mo  Mo6  1  7.75310311  0.14030267  -0.03623127  1
  Mo  Mo7  1  12.84568237  0.92848648  -0.04830106  1
  Mo  Mo8  1  10.32261703  1.85325155  0.05792026  1
  Mo  Mo9  1  11.64087511  0.06364152  2.25374661  1
  Mo  Mo10  1  9.08687068  0.90584858  2.22938955  1
  Mo  Mo11  1  14.21326931  1.80400269  2.25331921  1
