# generated using pymatgen
data_Mo
_symmetry_space_group_name_H-M   'P 1'
_cell_length_a   16.01476149
_cell_length_b   2.73966831
_cell_length_c   4.47385961
_cell_angle_alpha   90.00000000
_cell_angle_beta   75.43828720
_cell_angle_gamma   89.01978503
_symmetry_Int_Tables_number   1
_chemical_formula_structural   Mo
_chemical_formula_sum   Mo12
_cell_volume   189.95613004
_cell_formula_units_Z   12
loop_
 _symmetry_equiv_pos_site_id
 _symmetry_equiv_pos_as_xyz
  1  'x, y, z'
loop_
 _atom_site_type_symbol
 _atom_site_label
 _atom_site_symmetry_multiplicity
 _atom_site_fract_x
 _atom_site_fract_y
 _atom_site_fract_z
 _atom_site_occupancy
  Mo  Mo0  1  0.00405061  0.00436824  -0.10150714  1
  Mo  Mo1  1  5.11544799  0.88593484  0.00635303  1
  Mo  Mo2  1  2.61767148  1.81940372  -0.01872109  1
  Mo  Mo3  1  3.85724972  0.01710680  2.24821059  1
  Mo  Mo4  1  1.33451895  0.92258635  2.30365481  1
  Mo  Mo5  1  6.51949018  1.80000774  2.20357830  1
  Mo  Mo6  1  7.75460941  0.01150387  -0.03932230  1
  Mo  Mo7  1  12.95880682  0.91858707  -0.03342649  1
  Mo  Mo8  1  10.28989087  1.86907999  -0.01244280  1
  Mo  Mo9  1  11.69232978  0.02613404  2.18459587  1
  Mo  Mo10  1  9.00768478  0.91338502  2.20483207  1
  Mo  Mo11  1  14.22060322  1.86118303  2.29204622  1
