# generated using pymatgen
data_Mo
_symmetry_space_group_name_H-M   'P 1'
_cell_length_a   15.50758746
_cell_length_b   2.73966831
_cell_length_c   4.47385961
_cell_angle_alpha   90.00000000
_cell_angle_beta   90.00000000
_cell_angle_gamma   87.97513170
_symmetry_Int_Tables_number   1
_chemical_formula_structural   Mo
_chemical_formula_sum   Mo12
_cell_volume   189.95613004
_cell_formula_units_Z   12
loop_
 _symmetry_equiv_pos_site_id
 _symmetry_equiv_pos_as_xyz
  1  'x, y, z'
loop_
 _atom_site_type_symbol
 _atom_site_label
 _atom_site_symmetry_multiplicity
 _atom_site_fract_x
 _atom_site_fract_y
 _atom_site_fract_z
 _atom_site_occupancy
  Mo  Mo0  1  -0.00920584  0.01554100  0.01425528  1
  Mo  Mo1  1  5.18849679  0.91983658  0.07612731  1
  Mo  Mo2  1  2.59503539  1.79339016  -0.00239283  1
  Mo  Mo3  1  3.87072446  -0.05441729  2.21335579  1
  Mo  Mo4  1  1.27667305  0.98196397  2.34406831  1
  Mo  Mo5  1  6.40271958  1.90431959  2.17858896  1
  Mo  Mo6  1  7.74358332  -0.07757199  0.02078326  1
  Mo  Mo7  1  12.86474464  0.91030407  -0.08517962  1
  Mo  Mo8  1  10.30276492  1.75822085  0.05451617  1
  Mo  Mo9  1  11.62340502  -0.10639801  2.26853196  1
  Mo  Mo10  1  9.07561669  0.94778746  2.22962613  1
  Mo  Mo11  1  14.20138230  1.81556779  2.19369940  1
