# generated using pymatgen
data_Mo
_symmetry_space_group_name_H-M   'P 1'
_cell_length_a   15.51403955
_cell_length_b   2.73966831
_cell_length_c   4.47385961
_cell_angle_alpha   90.00000000
_cell_angle_beta   88.34750445
_cell_angle_gamma   87.97597417
_symmetry_Int_Tables_number   1
_chemical_formula_structural   Mo
_chemical_formula_sum   Mo12
_cell_volume   189.95613004
_cell_formula_units_Z   12
loop_
 _symmetry_equiv_pos_site_id
 _symmetry_equiv_pos_as_xyz
  1  'x, y, z'
loop_
 _atom_site_type_symbol
 _atom_site_label
 _atom_site_symmetry_multiplicity
 _atom_site_fract_x
 _atom_site_fract_y
 _atom_site_fract_z
 _atom_site_occupancy
  Mo  Mo0  1  -0.02533333  0.02114867  0.03939657  1
  Mo  Mo1  1  5.14113619  0.97162012  0.01611389  1
  Mo  Mo2  1  2.63463339  1.72245915  0.05396727  1
  Mo  Mo3  1  3.94900192  -0.00389617  2.25939283  1
  Mo  Mo4  1  1.29827523  0.94434417  2.27141731  1
  Mo  Mo5  1  6.45510027  1.79914308  2.24380642  1
  Mo  Mo6  1  7.69750288  0.02103606  0.00554180  1
  Mo  Mo7  1  12.94403177  0.91396376  0.01472158  1
  Mo  Mo8  1  10.27416592  1.88902700  -0.00293065  1
  Mo  Mo9  1  11.63944030  0.03646254  2.24878455  1
  Mo  Mo10  1  9.04291332  0.89557760  2.24478592  1
  Mo  Mo11  1  14.23004497  1.83083841  2.25191074  1
