# generated using pymatgen
data_Mo
_symmetry_space_group_name_H-M   'P 1'
_cell_length_a   15.53337973
_cell_length_b   2.73966831
_cell_length_c   4.47385961
_cell_angle_alpha   90.00000000
_cell_angle_beta   86.69775350
_cell_angle_gamma   87.97849527
_symmetry_Int_Tables_number   1
_chemical_formula_structural   Mo
_chemical_formula_sum   Mo12
_cell_volume   189.95613004
_cell_formula_units_Z   12
loop_
 _symmetry_equiv_pos_site_id
 _symmetry_equiv_pos_as_xyz
  1  'x, y, z'
loop_
 _atom_site_type_symbol
 _atom_site_label
 _atom_site_symmetry_multiplicity
 _atom_site_fract_x
 _atom_site_fract_y
 _atom_site_fract_z
 _atom_site_occupancy
  Mo  Mo0  1  -0.00319689  -0.00845181  -0.03530088  1
  Mo  Mo1  1  5.09904764  0.90473430  -0.02131422  1
  Mo  Mo2  1  2.55905659  1.84665420  -0.06516500  1
  Mo  Mo3  1  3.88155287  0.07738779  2.20430692  1
  Mo  Mo4  1  1.32311190  0.90593877  2.28830265  1
  Mo  Mo5  1  6.49681688  1.73140228  2.28179453  1
  Mo  Mo6  1  7.73913982  -0.03272248  -0.00958381  1
  Mo  Mo7  1  12.93523695  0.88719231  -0.03462479  1
  Mo  Mo8  1  10.33824294  1.80997014  0.03465008  1
  Mo  Mo9  1  11.60059891  -0.01859469  2.27724854  1
  Mo  Mo10  1  8.95774175  1.00391806  2.26152300  1
  Mo  Mo11  1  14.13830578  1.77341294  2.18327581  1
