# generated using pymatgen
data_Mo
_symmetry_space_group_name_H-M   'P 1'
_cell_length_a   15.91524859
_cell_length_b   2.73966831
_cell_length_c   4.47385961
_cell_angle_alpha   90.00000000
_cell_angle_beta   77.00393215
_cell_angle_gamma   88.02701847
_symmetry_Int_Tables_number   1
_chemical_formula_structural   Mo
_chemical_formula_sum   Mo12
_cell_volume   189.95613004
_cell_formula_units_Z   12
loop_
 _symmetry_equiv_pos_site_id
 _symmetry_equiv_pos_as_xyz
  1  'x, y, z'
loop_
 _atom_site_type_symbol
 _atom_site_label
 _atom_site_symmetry_multiplicity
 _atom_site_fract_x
 _atom_site_fract_y
 _atom_site_fract_z
 _atom_site_occupancy
  Mo  Mo0  1  0.00386807  -0.04669357  -0.02726204  1
  Mo  Mo1  1  5.16557991  0.96869051  -0.00067052  1
  Mo  Mo2  1  2.58203553  1.76574313  -0.07176992  1
  Mo  Mo3  1  3.88123990  0.02585812  2.28831542  1
  Mo  Mo4  1  1.27294522  0.96895830  2.26037412  1
  Mo  Mo5  1  6.53327048  1.80920315  2.22104506  1
  Mo  Mo6  1  7.69977126  0.01194830  0.05974164  1
  Mo  Mo7  1  12.93461711  0.86708485  0.11337897  1
  Mo  Mo8  1  10.33133391  1.79451523  -0.02815550  1
  Mo  Mo9  1  11.57887932  -0.02685302  2.21047907  1
  Mo  Mo10  1  9.04008616  0.94460999  2.19951467  1
  Mo  Mo11  1  14.22179273  1.82745195  2.20122960  1
