# generated using pymatgen
data_Mo
_symmetry_space_group_name_H-M   'P 1'
_cell_length_a   16.02179013
_cell_length_b   2.73966831
_cell_length_c   4.47385961
_cell_angle_alpha   90.00000000
_cell_angle_beta   75.44481641
_cell_angle_gamma   88.04014352
_symmetry_Int_Tables_number   1
_chemical_formula_structural   Mo
_chemical_formula_sum   Mo12
_cell_volume   189.95613004
_cell_formula_units_Z   12
loop_
 _symmetry_equiv_pos_site_id
 _symmetry_equiv_pos_as_xyz
  1  'x, y, z'
loop_
 _atom_site_type_symbol
 _atom_site_label
 _atom_site_symmetry_multiplicity
 _atom_site_fract_x
 _atom_site_fract_y
 _atom_site_fract_z
 _atom_site_occupancy
  Mo  Mo0  1  0.09198854  0.00544232  0.00669140  1
  Mo  Mo1  1  5.17343752  0.94139741  0.06258472  1
  Mo  Mo2  1  2.59539990  1.86911902  0.00906602  1
  Mo  Mo3  1  3.86448195  0.03860444  2.13969452  1
  Mo  Mo4  1  1.32080437  0.92780914  2.21158332  1
  Mo  Mo5  1  6.48927134  1.85966863  2.28280668  1
  Mo  Mo6  1  7.71741258  0.01652474  -0.03228676  1
  Mo  Mo7  1  12.92077871  0.90075406  0.02085213  1
  Mo  Mo8  1  10.31936005  1.82245283  0.05083841  1
  Mo  Mo9  1  11.65358206  0.03319551  2.26176483  1
  Mo  Mo10  1  9.05390366  0.85454997  2.22115622  1
  Mo  Mo11  1  14.21490372  1.85417714  2.30927040  1
