# generated using pymatgen
data_Mo
_symmetry_space_group_name_H-M   'P 1'
_cell_length_a   15.52612998
_cell_length_b   2.73966831
_cell_length_c   4.47385961
_cell_angle_alpha   90.00000000
_cell_angle_beta   88.34879163
_cell_angle_gamma   86.96553802
_symmetry_Int_Tables_number   1
_chemical_formula_structural   Mo
_chemical_formula_sum   Mo12
_cell_volume   189.95613004
_cell_formula_units_Z   12
loop_
 _symmetry_equiv_pos_site_id
 _symmetry_equiv_pos_as_xyz
  1  'x, y, z'
loop_
 _atom_site_type_symbol
 _atom_site_label
 _atom_site_symmetry_multiplicity
 _atom_site_fract_x
 _atom_site_fract_y
 _atom_site_fract_z
 _atom_site_occupancy
  Mo  Mo0  1  0.02327164  -0.07351445  -0.03115607  1
  Mo  Mo1  1  5.14228543  0.96658742  -0.00236182  1
  Mo  Mo2  1  2.60339934  1.84958462  -0.03227819  1
  Mo  Mo3  1  3.81841501  -0.01982027  2.19785370  1
  Mo  Mo4  1  1.19021235  0.91563285  2.22982196  1
  Mo  Mo5  1  6.43472787  1.77977814  2.25051740  1
  Mo  Mo6  1  7.70874058  0.03867437  -0.03597654  1
  Mo  Mo7  1  12.87137854  0.89925759  -0.07699734  1
  Mo  Mo8  1  10.32827897  1.89511459  -0.00446889  1
  Mo  Mo9  1  11.63865509  0.09627427  2.22301383  1
  Mo  Mo10  1  9.05620611  0.90366851  2.24679783  1
  Mo  Mo11  1  14.20116075  1.86129406  2.15875917  1
