# generated using pymatgen
data_Mo
_symmetry_space_group_name_H-M   'P 1'
_cell_length_a   15.54545512
_cell_length_b   2.73966831
_cell_length_c   4.47385961
_cell_angle_alpha   90.00000000
_cell_angle_beta   86.70032146
_cell_angle_gamma   86.96931380
_symmetry_Int_Tables_number   1
_chemical_formula_structural   Mo
_chemical_formula_sum   Mo12
_cell_volume   189.95613004
_cell_formula_units_Z   12
loop_
 _symmetry_equiv_pos_site_id
 _symmetry_equiv_pos_as_xyz
  1  'x, y, z'
loop_
 _atom_site_type_symbol
 _atom_site_label
 _atom_site_symmetry_multiplicity
 _atom_site_fract_x
 _atom_site_fract_y
 _atom_site_fract_z
 _atom_site_occupancy
  Mo  Mo0  1  0.01518718  0.05300009  -0.03500316  1
  Mo  Mo1  1  5.13111940  0.94843673  0.05428590  1
  Mo  Mo2  1  2.57115974  1.76227880  -0.04951642  1
  Mo  Mo3  1  3.86588909  -0.02373509  2.29018758  1
  Mo  Mo4  1  1.22229040  0.89974097  2.23989473  1
  Mo  Mo5  1  6.43146377  1.84681586  2.26227942  1
  Mo  Mo6  1  7.79376260  -0.00490959  0.03446616  1
  Mo  Mo7  1  12.86073957  0.86962241  -0.04363300  1
  Mo  Mo8  1  10.35637953  1.79538186  -0.02901687  1
  Mo  Mo9  1  11.62822813  0.04290212  2.30769301  1
  Mo  Mo10  1  9.04007957  0.91910572  2.25262907  1
  Mo  Mo11  1  14.19153369  1.83464419  2.23138322  1
