# generated using pymatgen
data_Mo
_symmetry_space_group_name_H-M   'P 1'
_cell_length_a   15.92703446
_cell_length_b   2.73966831
_cell_length_c   4.47385961
_cell_angle_alpha   90.00000000
_cell_angle_beta   77.01371733
_cell_angle_gamma   87.04198825
_symmetry_Int_Tables_number   1
_chemical_formula_structural   Mo
_chemical_formula_sum   Mo12
_cell_volume   189.95613004
_cell_formula_units_Z   12
loop_
 _symmetry_equiv_pos_site_id
 _symmetry_equiv_pos_as_xyz
  1  'x, y, z'
loop_
 _atom_site_type_symbol
 _atom_site_label
 _atom_site_symmetry_multiplicity
 _atom_site_fract_x
 _atom_site_fract_y
 _atom_site_fract_z
 _atom_site_occupancy
  Mo  Mo0  1  0.05550220  0.08633662  0.02935045  1
  Mo  Mo1  1  5.18829283  0.96231985  0.03780594  1
  Mo  Mo2  1  2.56197081  1.85231186  0.01429695  1
  Mo  Mo3  1  3.86664802  0.03471262  2.21441249  1
  Mo  Mo4  1  1.27609077  0.93466969  2.24545718  1
  Mo  Mo5  1  6.45389324  1.81224171  2.20903304  1
  Mo  Mo6  1  7.75557711  0.02093403  0.04917119  1
  Mo  Mo7  1  12.92860090  0.94446570  0.01112203  1
  Mo  Mo8  1  10.31790588  1.76370899  -0.05084211  1
  Mo  Mo9  1  11.65318687  -0.03074357  2.29216336  1
  Mo  Mo10  1  9.05190996  0.98195782  2.28785432  1
  Mo  Mo11  1  14.18455687  1.80302004  2.19962530  1
