# generated using pymatgen
data_Mo
_symmetry_space_group_name_H-M   'P 1'
_cell_length_a   16.03349769
_cell_length_b   2.73966831
_cell_length_c   4.47385961
_cell_angle_alpha   90.00000000
_cell_angle_beta   75.45567893
_cell_angle_gamma   87.06164689
_symmetry_Int_Tables_number   1
_chemical_formula_structural   Mo
_chemical_formula_sum   Mo12
_cell_volume   189.95613004
_cell_formula_units_Z   12
loop_
 _symmetry_equiv_pos_site_id
 _symmetry_equiv_pos_as_xyz
  1  'x, y, z'
loop_
 _atom_site_type_symbol
 _atom_site_label
 _atom_site_symmetry_multiplicity
 _atom_site_fract_x
 _atom_site_fract_y
 _atom_site_fract_z
 _atom_site_occupancy
  Mo  Mo0  1  -0.02422662  0.02304871  -0.00376171  1
  Mo  Mo1  1  5.11779840  0.95054391  -0.04950118  1
  Mo  Mo2  1  2.60254790  1.84120769  0.00466115  1
  Mo  Mo3  1  3.89329323  -0.03805591  2.20161629  1
  Mo  Mo4  1  1.24331481  0.86205445  2.25724174  1
  Mo  Mo5  1  6.56280766  1.79728831  2.20506914  1
  Mo  Mo6  1  7.66285362  -0.04052614  -0.00291618  1
  Mo  Mo7  1  12.93959274  0.95577608  -0.02412723  1
  Mo  Mo8  1  10.30379429  1.81966300  -0.06533285  1
  Mo  Mo9  1  11.65004049  -0.00633917  2.26751718  1
  Mo  Mo10  1  9.07158326  0.96287321  2.25987004  1
  Mo  Mo11  1  14.14700493  1.75573417  2.23290527  1
