# generated using pymatgen
data_Mo
_symmetry_space_group_name_H-M   'P 1'
_cell_length_a   15.53660075
_cell_length_b   2.73966831
_cell_length_c   4.47385961
_cell_angle_alpha   90.00000000
_cell_angle_beta   90.00000000
_cell_angle_gamma   85.95530876
_symmetry_Int_Tables_number   1
_chemical_formula_structural   Mo
_chemical_formula_sum   Mo12
_cell_volume   189.95613004
_cell_formula_units_Z   12
loop_
 _symmetry_equiv_pos_site_id
 _symmetry_equiv_pos_as_xyz
  1  'x, y, z'
loop_
 _atom_site_type_symbol
 _atom_site_label
 _atom_site_symmetry_multiplicity
 _atom_site_fract_x
 _atom_site_fract_y
 _atom_site_fract_z
 _atom_site_occupancy
  Mo  Mo0  1  -0.01976494  0.03732038  -0.05994302  1
  Mo  Mo1  1  5.12873009  0.98358612  0.02359446  1
  Mo  Mo2  1  2.56729141  1.77962587  0.04263366  1
  Mo  Mo3  1  3.83853129  -0.02381042  2.23174896  1
  Mo  Mo4  1  1.21169601  1.00375617  2.23028142  1
  Mo  Mo5  1  6.39264129  1.82743069  2.25623613  1
  Mo  Mo6  1  7.76129247  0.05493165  -0.05251362  1
  Mo  Mo7  1  12.98056509  0.98867854  0.03698923  1
  Mo  Mo8  1  10.32492550  1.77551494  -0.00576506  1
  Mo  Mo9  1  11.66759603  -0.04462090  2.25505671  1
  Mo  Mo10  1  9.02737714  0.84384972  2.27046605  1
  Mo  Mo11  1  14.24297655  1.79893655  2.24220023  1
