# generated using pymatgen
data_Mo
_symmetry_space_group_name_H-M   'P 1'
_cell_length_a   15.54304079
_cell_length_b   2.73966831
_cell_length_c   4.47385961
_cell_angle_alpha   90.00000000
_cell_angle_beta   88.35058864
_cell_angle_gamma   85.95698741
_symmetry_Int_Tables_number   1
_chemical_formula_structural   Mo
_chemical_formula_sum   Mo12
_cell_volume   189.95613004
_cell_formula_units_Z   12
loop_
 _symmetry_equiv_pos_site_id
 _symmetry_equiv_pos_as_xyz
  1  'x, y, z'
loop_
 _atom_site_type_symbol
 _atom_site_label
 _atom_site_symmetry_multiplicity
 _atom_site_fract_x
 _atom_site_fract_y
 _atom_site_fract_z
 _atom_site_occupancy
  Mo  Mo0  1  -0.00684570  0.02027478  -0.03173419  1
  Mo  Mo1  1  5.15690915  0.93574054  -0.05289813  1
  Mo  Mo2  1  2.54660561  1.85345268  -0.05737302  1
  Mo  Mo3  1  3.88143971  0.03072589  2.29373073  1
  Mo  Mo4  1  1.33037275  0.92745977  2.29547536  1
  Mo  Mo5  1  6.44482196  1.77113150  2.24517130  1
  Mo  Mo6  1  7.70273807  0.00944586  0.06309877  1
  Mo  Mo7  1  12.87778726  0.90320585  0.01745578  1
  Mo  Mo8  1  10.39576545  1.80983481  -0.03348173  1
  Mo  Mo9  1  11.66223549  0.02878576  2.28644886  1
  Mo  Mo10  1  9.06660462  1.00791867  2.20045373  1
  Mo  Mo11  1  14.21079609  1.85935504  2.18617519  1
