# generated using pymatgen
data_Mo
_symmetry_space_group_name_H-M   'P 1'
_cell_length_a   16.04987392
_cell_length_b   2.73966831
_cell_length_c   4.47385961
_cell_angle_alpha   90.00000000
_cell_angle_beta   75.47084567
_cell_angle_gamma   86.08486258
_symmetry_Int_Tables_number   1
_chemical_formula_structural   Mo
_chemical_formula_sum   Mo12
_cell_volume   189.95613004
_cell_formula_units_Z   12
loop_
 _symmetry_equiv_pos_site_id
 _symmetry_equiv_pos_as_xyz
  1  'x, y, z'
loop_
 _atom_site_type_symbol
 _atom_site_label
 _atom_site_symmetry_multiplicity
 _atom_site_fract_x
 _atom_site_fract_y
 _atom_site_fract_z
 _atom_site_occupancy
  Mo  Mo0  1  0.04474311  -0.03131515  0.01464885  1
  Mo  Mo1  1  5.19462380  0.91704601  0.00266187  1
  Mo  Mo2  1  2.54595313  1.86797733  0.03785205  1
  Mo  Mo3  1  3.83435794  0.04499429  2.19013548  1
  Mo  Mo4  1  1.29285884  0.88557411  2.27480698  1
  Mo  Mo5  1  6.44465141  1.87271378  2.32801433  1
  Mo  Mo6  1  7.75012274  0.03340012  0.01662935  1
  Mo  Mo7  1  12.85544114  0.89316827  0.07584828  1
  Mo  Mo8  1  10.35398430  1.76974152  -0.11378011  1
  Mo  Mo9  1  11.61516810  -0.05754561  2.18353166  1
  Mo  Mo10  1  9.10288181  0.83516906  2.25121426  1
  Mo  Mo11  1  14.23555941  1.79445315  2.22064425  1
