# generated using pymatgen
data_Mo
_symmetry_space_group_name_H-M   'P 1'
_cell_length_a   15.55832521
_cell_length_b   2.73966831
_cell_length_c   4.47385961
_cell_angle_alpha   90.00000000
_cell_angle_beta   90.00000000
_cell_angle_gamma   84.94884746
_symmetry_Int_Tables_number   1
_chemical_formula_structural   Mo
_chemical_formula_sum   Mo12
_cell_volume   189.95613004
_cell_formula_units_Z   12
loop_
 _symmetry_equiv_pos_site_id
 _symmetry_equiv_pos_as_xyz
  1  'x, y, z'
loop_
 _atom_site_type_symbol
 _atom_site_label
 _atom_site_symmetry_multiplicity
 _atom_site_fract_x
 _atom_site_fract_y
 _atom_site_fract_z
 _atom_site_occupancy
  Mo  Mo0  1  -0.01061185  0.07739214  -0.07118487  1
  Mo  Mo1  1  5.14820121  0.92831106  0.05739913  1
  Mo  Mo2  1  2.57541747  1.77724192  -0.04777141  1
  Mo  Mo3  1  3.84605723  0.01601823  2.25665600  1
  Mo  Mo4  1  1.30978547  0.92274550  2.22581474  1
  Mo  Mo5  1  6.47065139  1.82867760  2.19708057  1
  Mo  Mo6  1  7.69195248  0.01173821  -0.03366587  1
  Mo  Mo7  1  12.90935549  0.93698429  0.00582426  1
  Mo  Mo8  1  10.29246923  1.86241021  0.00974046  1
  Mo  Mo9  1  11.66430891  -0.01551708  2.27443496  1
  Mo  Mo10  1  9.11397279  0.91823055  2.27627008  1
  Mo  Mo11  1  14.12070097  1.87583084  2.20662007  1
