# generated using pymatgen
data_Mo
_symmetry_space_group_name_H-M   'P 1'
_cell_length_a   15.56475626
_cell_length_b   2.73966831
_cell_length_c   4.47385961
_cell_angle_alpha   90.00000000
_cell_angle_beta   88.35289048
_cell_angle_gamma   84.95093992
_symmetry_Int_Tables_number   1
_chemical_formula_structural   Mo
_chemical_formula_sum   Mo12
_cell_volume   189.95613004
_cell_formula_units_Z   12
loop_
 _symmetry_equiv_pos_site_id
 _symmetry_equiv_pos_as_xyz
  1  'x, y, z'
loop_
 _atom_site_type_symbol
 _atom_site_label
 _atom_site_symmetry_multiplicity
 _atom_site_fract_x
 _atom_site_fract_y
 _atom_site_fract_z
 _atom_site_occupancy
  Mo  Mo0  1  -0.05473144  -0.04049475  0.03214181  1
  Mo  Mo1  1  5.14406067  0.98672307  -0.00483637  1
  Mo  Mo2  1  2.53541036  1.83316120  -0.06330004  1
  Mo  Mo3  1  3.90940230  -0.00371402  2.26079883  1
  Mo  Mo4  1  1.30449764  0.93897619  2.27042313  1
  Mo  Mo5  1  6.39871021  1.87300592  2.26331072  1
  Mo  Mo6  1  7.75493045  0.01538550  -0.01034800  1
  Mo  Mo7  1  12.95847978  0.93686398  -0.04086691  1
  Mo  Mo8  1  10.31958221  1.81510573  0.01359775  1
  Mo  Mo9  1  11.66451601  0.01634392  2.18890830  1
  Mo  Mo10  1  8.98786971  0.93691930  2.21343211  1
  Mo  Mo11  1  14.18834067  1.83763760  2.25734104  1
