# generated using pymatgen
data_Mo
_symmetry_space_group_name_H-M   'P 1'
_cell_length_a   16.07090456
_cell_length_b   2.73966831
_cell_length_c   4.47385961
_cell_angle_alpha   90.00000000
_cell_angle_beta   75.49027619
_cell_angle_gamma   85.11035207
_symmetry_Int_Tables_number   1
_chemical_formula_structural   Mo
_chemical_formula_sum   Mo12
_cell_volume   189.95613004
_cell_formula_units_Z   12
loop_
 _symmetry_equiv_pos_site_id
 _symmetry_equiv_pos_as_xyz
  1  'x, y, z'
loop_
 _atom_site_type_symbol
 _atom_site_label
 _atom_site_symmetry_multiplicity
 _atom_site_fract_x
 _atom_site_fract_y
 _atom_site_fract_z
 _atom_site_occupancy
  Mo  Mo0  1  0.01615112  0.04546036  -0.01058555  1
  Mo  Mo1  1  5.18527511  0.88838682  0.02846365  1
  Mo  Mo2  1  2.59642536  1.85942514  -0.02683463  1
  Mo  Mo3  1  3.89616308  -0.04364316  2.25756038  1
  Mo  Mo4  1  1.32901321  0.94609336  2.18374563  1
  Mo  Mo5  1  6.51667658  1.78848884  2.22827837  1
  Mo  Mo6  1  7.72515040  -0.05342134  -0.02530232  1
  Mo  Mo7  1  12.92365250  0.89602934  -0.05607037  1
  Mo  Mo8  1  10.38189465  1.73346304  -0.00794303  1
  Mo  Mo9  1  11.60440524  -0.03771799  2.21112049  1
  Mo  Mo10  1  9.05515147  0.86005057  2.24335631  1
  Mo  Mo11  1  14.20874223  1.80982179  2.18509691  1
