# generated using pymatgen
data_Mo
_symmetry_space_group_name_H-M   'P 1'
_cell_length_a   15.58483620
_cell_length_b   2.73966831
_cell_length_c   4.47385961
_cell_angle_alpha   90.00000000
_cell_angle_beta   90.00000000
_cell_angle_gamma   83.94550151
_symmetry_Int_Tables_number   1
_chemical_formula_structural   Mo
_chemical_formula_sum   Mo12
_cell_volume   189.95613004
_cell_formula_units_Z   12
loop_
 _symmetry_equiv_pos_site_id
 _symmetry_equiv_pos_as_xyz
  1  'x, y, z'
loop_
 _atom_site_type_symbol
 _atom_site_label
 _atom_site_symmetry_multiplicity
 _atom_site_fract_x
 _atom_site_fract_y
 _atom_site_fract_z
 _atom_site_occupancy
  Mo  Mo0  1  0.03465101  -0.02141472  0.01807382  1
  Mo  Mo1  1  5.21970137  0.97700751  0.03145471  1
  Mo  Mo2  1  2.51505851  1.82210724  -0.00453014  1
  Mo  Mo3  1  3.83707133  0.02277969  2.21313072  1
  Mo  Mo4  1  1.33349034  0.89268887  2.20769849  1
  Mo  Mo5  1  6.42281016  1.84653009  2.26510263  1
  Mo  Mo6  1  7.68556973  -0.01729502  -0.03725811  1
  Mo  Mo7  1  12.91204905  0.92395061  -0.07796946  1
  Mo  Mo8  1  10.34055291  1.73220091  -0.01512220  1
  Mo  Mo9  1  11.60099650  0.04862620  2.23047702  1
  Mo  Mo10  1  9.09210952  0.94970564  2.17810312  1
  Mo  Mo11  1  14.21512524  1.77408747  2.20619730  1
