# generated using pymatgen
data_Mo
_symmetry_space_group_name_H-M   'P 1'
_cell_length_a   15.59125632
_cell_length_b   2.73966831
_cell_length_c   4.47385961
_cell_angle_alpha   90.00000000
_cell_angle_beta   88.35569080
_cell_angle_gamma   83.94800393
_symmetry_Int_Tables_number   1
_chemical_formula_structural   Mo
_chemical_formula_sum   Mo12
_cell_volume   189.95613004
_cell_formula_units_Z   12
loop_
 _symmetry_equiv_pos_site_id
 _symmetry_equiv_pos_as_xyz
  1  'x, y, z'
loop_
 _atom_site_type_symbol
 _atom_site_label
 _atom_site_symmetry_multiplicity
 _atom_site_fract_x
 _atom_site_fract_y
 _atom_site_fract_z
 _atom_site_occupancy
  Mo  Mo0  1  -0.05140922  -0.03453494  0.05230063  1
  Mo  Mo1  1  5.16609689  0.93330736  0.03674896  1
  Mo  Mo2  1  2.61077962  1.84657992  -0.08628165  1
  Mo  Mo3  1  3.78628001  -0.01766709  2.27895172  1
  Mo  Mo4  1  1.34445558  0.87885128  2.21839446  1
  Mo  Mo5  1  6.46329978  1.94477874  2.19212743  1
  Mo  Mo6  1  7.67947415  -0.00379106  0.02808687  1
  Mo  Mo7  1  12.87320546  0.96320144  0.08428562  1
  Mo  Mo8  1  10.28131195  1.87248441  0.05703287  1
  Mo  Mo9  1  11.59092401  0.04141755  2.26270958  1
  Mo  Mo10  1  9.09698195  0.93811957  2.18978376  1
  Mo  Mo11  1  14.17055585  1.85788682  2.19922974  1
