# generated using pymatgen
data_Mo
_symmetry_space_group_name_H-M   'P 1'
_cell_length_a   16.09657135
_cell_length_b   2.73966831
_cell_length_c   4.47385961
_cell_angle_alpha   90.00000000
_cell_angle_beta   75.51391904
_cell_angle_gamma   84.13866896
_symmetry_Int_Tables_number   1
_chemical_formula_structural   Mo
_chemical_formula_sum   Mo12
_cell_volume   189.95613004
_cell_formula_units_Z   12
loop_
 _symmetry_equiv_pos_site_id
 _symmetry_equiv_pos_as_xyz
  1  'x, y, z'
loop_
 _atom_site_type_symbol
 _atom_site_label
 _atom_site_symmetry_multiplicity
 _atom_site_fract_x
 _atom_site_fract_y
 _atom_site_fract_z
 _atom_site_occupancy
  Mo  Mo0  1  0.02104505  0.09873162  -0.03063733  1
  Mo  Mo1  1  5.11823765  0.93007032  0.03854415  1
  Mo  Mo2  1  2.58648236  1.89575294  0.05809858  1
  Mo  Mo3  1  3.85182002  -0.06096271  2.33105156  1
  Mo  Mo4  1  1.28052928  0.96841317  2.21273212  1
  Mo  Mo5  1  6.40845113  1.77666091  2.23026663  1
  Mo  Mo6  1  7.74493364  0.00665327  -0.01225886  1
  Mo  Mo7  1  12.92748326  0.86595795  0.04718201  1
  Mo  Mo8  1  10.26901306  1.82389735  -0.01574026  1
  Mo  Mo9  1  11.62346684  -0.08924727  2.20812733  1
  Mo  Mo10  1  8.99636433  0.98467613  2.29413383  1
  Mo  Mo11  1  14.16136496  1.85356627  2.21889355  1
