# generated using pymatgen
data_Mo
_symmetry_space_group_name_H-M   'P 1'
_cell_length_a   15.61610934
_cell_length_b   2.73966831
_cell_length_c   4.47385961
_cell_angle_alpha   90.00000000
_cell_angle_beta   90.00000000
_cell_angle_gamma   82.94586861
_symmetry_Int_Tables_number   1
_chemical_formula_structural   Mo
_chemical_formula_sum   Mo12
_cell_volume   189.95613004
_cell_formula_units_Z   12
loop_
 _symmetry_equiv_pos_site_id
 _symmetry_equiv_pos_as_xyz
  1  'x, y, z'
loop_
 _atom_site_type_symbol
 _atom_site_label
 _atom_site_symmetry_multiplicity
 _atom_site_fract_x
 _atom_site_fract_y
 _atom_site_fract_z
 _atom_site_occupancy
  Mo  Mo0  1  0.02592672  0.01078805  -0.02301380  1
  Mo  Mo1  1  5.17513467  0.94265540  -0.00165618  1
  Mo  Mo2  1  2.64420561  1.79699939  -0.03894746  1
  Mo  Mo3  1  3.77390090  0.01374934  2.18952960  1
  Mo  Mo4  1  1.26285027  0.88252693  2.18414619  1
  Mo  Mo5  1  6.44653022  1.84457770  2.22336210  1
  Mo  Mo6  1  7.74220499  0.02589719  -0.02504085  1
  Mo  Mo7  1  12.94250715  0.90377609  0.02457249  1
  Mo  Mo8  1  10.33016878  1.81867579  -0.04982653  1
  Mo  Mo9  1  11.61165928  0.02661106  2.22592211  1
  Mo  Mo10  1  9.00858805  0.93068072  2.22086826  1
  Mo  Mo11  1  14.21545328  1.78860082  2.22844982  1
