# generated using pymatgen
data_Mo
_symmetry_space_group_name_H-M   'P 1'
_cell_length_a   15.62251661
_cell_length_b   2.73966831
_cell_length_c   4.47385961
_cell_angle_alpha   90.00000000
_cell_angle_beta   88.35898193
_cell_angle_gamma   82.94877642
_symmetry_Int_Tables_number   1
_chemical_formula_structural   Mo
_chemical_formula_sum   Mo12
_cell_volume   189.95613004
_cell_formula_units_Z   12
loop_
 _symmetry_equiv_pos_site_id
 _symmetry_equiv_pos_as_xyz
  1  'x, y, z'
loop_
 _atom_site_type_symbol
 _atom_site_label
 _atom_site_symmetry_multiplicity
 _atom_site_fract_x
 _atom_site_fract_y
 _atom_site_fract_z
 _atom_site_occupancy
  Mo  Mo0  1  0.00135776  -0.07020243  0.02543828  1
  Mo  Mo1  1  5.26360235  0.91139868  0.02639791  1
  Mo  Mo2  1  2.53511471  1.87804443  0.03393264  1
  Mo  Mo3  1  3.86205630  0.01671800  2.30463456  1
  Mo  Mo4  1  1.31164846  0.92419070  2.18661540  1
  Mo  Mo5  1  6.46810914  1.84079624  2.21266555  1
  Mo  Mo6  1  7.78144371  -0.04404465  0.02119380  1
  Mo  Mo7  1  12.97018443  0.92442959  -0.01386501  1
  Mo  Mo8  1  10.35519871  1.79199205  0.01407074  1
  Mo  Mo9  1  11.62271823  0.00505216  2.18192046  1
  Mo  Mo10  1  9.03647750  0.87927497  2.23610536  1
  Mo  Mo11  1  14.20491707  1.74424222  2.29182194  1
