# generated using pymatgen
data_Mo
_symmetry_space_group_name_H-M   'P 1'
_cell_length_a   16.12685217
_cell_length_b   2.73966831
_cell_length_c   4.47385961
_cell_angle_alpha   90.00000000
_cell_angle_beta   75.54171208
_cell_angle_gamma   83.17035716
_symmetry_Int_Tables_number   1
_chemical_formula_structural   Mo
_chemical_formula_sum   Mo12
_cell_volume   189.95613004
_cell_formula_units_Z   12
loop_
 _symmetry_equiv_pos_site_id
 _symmetry_equiv_pos_as_xyz
  1  'x, y, z'
loop_
 _atom_site_type_symbol
 _atom_site_label
 _atom_site_symmetry_multiplicity
 _atom_site_fract_x
 _atom_site_fract_y
 _atom_site_fract_z
 _atom_site_occupancy
  Mo  Mo0  1  0.03165831  0.01298903  0.04907717  1
  Mo  Mo1  1  5.17961430  0.89051829  -0.01809660  1
  Mo  Mo2  1  2.64634453  1.87281436  0.06313891  1
  Mo  Mo3  1  3.90699962  -0.01892720  2.21984993  1
  Mo  Mo4  1  1.24746649  0.88317575  2.25875170  1
  Mo  Mo5  1  6.37187463  1.80996814  2.25024625  1
  Mo  Mo6  1  7.76527177  -0.04919104  -0.01002998  1
  Mo  Mo7  1  12.83332376  0.86832135  0.03229395  1
  Mo  Mo8  1  10.30094377  1.88634401  0.01818631  1
  Mo  Mo9  1  11.64783326  0.06368759  2.26374247  1
  Mo  Mo10  1  8.99627597  0.97345187  2.25557649  1
  Mo  Mo11  1  14.23260341  1.78322540  2.20102525  1
