# generated using pymatgen
data_Mo
_symmetry_space_group_name_H-M   'P 1'
_cell_length_a   15.65211610
_cell_length_b   2.73966831
_cell_length_c   4.47385961
_cell_angle_alpha   90.00000000
_cell_angle_beta   90.00000000
_cell_angle_gamma   81.95053301
_symmetry_Int_Tables_number   1
_chemical_formula_structural   Mo
_chemical_formula_sum   Mo12
_cell_volume   189.95613004
_cell_formula_units_Z   12
loop_
 _symmetry_equiv_pos_site_id
 _symmetry_equiv_pos_as_xyz
  1  'x, y, z'
loop_
 _atom_site_type_symbol
 _atom_site_label
 _atom_site_symmetry_multiplicity
 _atom_site_fract_x
 _atom_site_fract_y
 _atom_site_fract_z
 _atom_site_occupancy
  Mo  Mo0  1  0.04599669  -0.04724943  0.03696211  1
  Mo  Mo1  1  5.17676818  0.86953441  -0.04683675  1
  Mo  Mo2  1  2.57117729  1.76109592  0.04409050  1
  Mo  Mo3  1  3.91207195  0.01748029  2.20189155  1
  Mo  Mo4  1  1.30822484  0.89222835  2.27027346  1
  Mo  Mo5  1  6.45917249  1.83012420  2.35171908  1
  Mo  Mo6  1  7.76839329  -0.01135005  -0.00203319  1
  Mo  Mo7  1  12.87958438  0.98637225  -0.00992739  1
  Mo  Mo8  1  10.32426011  1.85795868  -0.02763882  1
  Mo  Mo9  1  11.67596401  0.07546761  2.24189317  1
  Mo  Mo10  1  9.07710201  0.88595885  2.25448902  1
  Mo  Mo11  1  14.17207443  1.84635670  2.23954468  1
