# generated using pymatgen
data_Mo
_symmetry_space_group_name_H-M   'P 1'
_cell_length_a   15.65850863
_cell_length_b   2.73966831
_cell_length_c   4.47385961
_cell_angle_alpha   90.00000000
_cell_angle_beta   88.36275493
_cell_angle_gamma   81.95384096
_symmetry_Int_Tables_number   1
_chemical_formula_structural   Mo
_chemical_formula_sum   Mo12
_cell_volume   189.95613004
_cell_formula_units_Z   12
loop_
 _symmetry_equiv_pos_site_id
 _symmetry_equiv_pos_as_xyz
  1  'x, y, z'
loop_
 _atom_site_type_symbol
 _atom_site_label
 _atom_site_symmetry_multiplicity
 _atom_site_fract_x
 _atom_site_fract_y
 _atom_site_fract_z
 _atom_site_occupancy
  Mo  Mo0  1  0.01086187  -0.02111697  0.10206099  1
  Mo  Mo1  1  5.19341433  0.96833151  0.02202854  1
  Mo  Mo2  1  2.65313785  1.79263185  -0.00073027  1
  Mo  Mo3  1  3.84163300  -0.04843033  2.22660634  1
  Mo  Mo4  1  1.34488036  0.89796718  2.28324753  1
  Mo  Mo5  1  6.50601249  1.86284443  2.24737305  1
  Mo  Mo6  1  7.69652189  0.04986157  0.00266579  1
  Mo  Mo7  1  12.98560239  0.95897617  0.00230433  1
  Mo  Mo8  1  10.33268991  1.84110955  0.02067047  1
  Mo  Mo9  1  11.61131970  0.00954925  2.23578142  1
  Mo  Mo10  1  9.02956393  0.87864592  2.26679201  1
  Mo  Mo11  1  14.09250010  1.80899251  2.29581484  1
