# generated using pymatgen
data_Mo
_symmetry_space_group_name_H-M   'P 1'
_cell_length_a   16.16172108
_cell_length_b   2.73966831
_cell_length_c   4.47385961
_cell_angle_alpha   90.00000000
_cell_angle_beta   75.57358298
_cell_angle_gamma   82.20594910
_symmetry_Int_Tables_number   1
_chemical_formula_structural   Mo
_chemical_formula_sum   Mo12
_cell_volume   189.95613004
_cell_formula_units_Z   12
loop_
 _symmetry_equiv_pos_site_id
 _symmetry_equiv_pos_as_xyz
  1  'x, y, z'
loop_
 _atom_site_type_symbol
 _atom_site_label
 _atom_site_symmetry_multiplicity
 _atom_site_fract_x
 _atom_site_fract_y
 _atom_site_fract_z
 _atom_site_occupancy
  Mo  Mo0  1  0.03774878  -0.00380628  -0.02174858  1
  Mo  Mo1  1  5.14302946  0.88260105  0.00119724  1
  Mo  Mo2  1  2.61176243  1.85086374  0.04904595  1
  Mo  Mo3  1  3.81657171  0.00387890  2.18200499  1
  Mo  Mo4  1  1.31909651  0.92025492  2.22221025  1
  Mo  Mo5  1  6.41294683  1.83388382  2.25374640  1
  Mo  Mo6  1  7.70482212  0.01393009  -0.00465659  1
  Mo  Mo7  1  12.88819487  0.92628544  -0.05414287  1
  Mo  Mo8  1  10.32962288  1.84543632  -0.03127654  1
  Mo  Mo9  1  11.61816314  -0.04769175  2.23226348  1
  Mo  Mo10  1  9.01223889  0.89835578  2.22402590  1
  Mo  Mo11  1  14.21770760  1.80055159  2.26607846  1
