# generated using pymatgen
data_Mo
_symmetry_space_group_name_H-M   'P 1'
_cell_length_a   15.69282388
_cell_length_b   2.73966831
_cell_length_c   4.47385961
_cell_angle_alpha   90.00000000
_cell_angle_beta   90.00000000
_cell_angle_gamma   80.96006361
_symmetry_Int_Tables_number   1
_chemical_formula_structural   Mo
_chemical_formula_sum   Mo12
_cell_volume   189.95613004
_cell_formula_units_Z   12
loop_
 _symmetry_equiv_pos_site_id
 _symmetry_equiv_pos_as_xyz
  1  'x, y, z'
loop_
 _atom_site_type_symbol
 _atom_site_label
 _atom_site_symmetry_multiplicity
 _atom_site_fract_x
 _atom_site_fract_y
 _atom_site_fract_z
 _atom_site_occupancy
  Mo  Mo0  1  -0.02526767  0.03262193  0.08299467  1
  Mo  Mo1  1  5.20079569  0.83704424  -0.00575280  1
  Mo  Mo2  1  2.53207695  1.81809264  -0.04257556  1
  Mo  Mo3  1  3.91962915  0.00354366  2.23595377  1
  Mo  Mo4  1  1.31548227  0.97798685  2.29827814  1
  Mo  Mo5  1  6.46142812  1.82542650  2.22758585  1
  Mo  Mo6  1  7.73590651  0.01458351  -0.05296282  1
  Mo  Mo7  1  12.85218679  0.93524013  -0.03348019  1
  Mo  Mo8  1  10.32375009  1.84058686  0.01552843  1
  Mo  Mo9  1  11.62128580  -0.03944482  2.32300777  1
  Mo  Mo10  1  8.99081288  0.98247716  2.25516241  1
  Mo  Mo11  1  14.23400996  1.87209005  2.26003558  1
