# generated using pymatgen
data_Mo
_symmetry_space_group_name_H-M   'P 1'
_cell_length_a   15.69919984
_cell_length_b   2.73966831
_cell_length_c   4.47385961
_cell_angle_alpha   90.00000000
_cell_angle_beta   88.36699971
_cell_angle_gamma   80.96376578
_symmetry_Int_Tables_number   1
_chemical_formula_structural   Mo
_chemical_formula_sum   Mo12
_cell_volume   189.95613004
_cell_formula_units_Z   12
loop_
 _symmetry_equiv_pos_site_id
 _symmetry_equiv_pos_as_xyz
  1  'x, y, z'
loop_
 _atom_site_type_symbol
 _atom_site_label
 _atom_site_symmetry_multiplicity
 _atom_site_fract_x
 _atom_site_fract_y
 _atom_site_fract_z
 _atom_site_occupancy
  Mo  Mo0  1  -0.04748573  -0.02355528  0.04436112  1
  Mo  Mo1  1  5.14046548  0.98047179  -0.05529595  1
  Mo  Mo2  1  2.53671303  1.80548318  -0.05220756  1
  Mo  Mo3  1  3.83469963  -0.03793289  2.21775513  1
  Mo  Mo4  1  1.25915868  0.85060229  2.24269814  1
  Mo  Mo5  1  6.40913947  1.86669438  2.21641797  1
  Mo  Mo6  1  7.75220163  -0.00764395  0.00319083  1
  Mo  Mo7  1  12.92710998  0.98327023  0.03446994  1
  Mo  Mo8  1  10.27281184  1.77383902  0.04335256  1
  Mo  Mo9  1  11.61718998  0.05972524  2.27566320  1
  Mo  Mo10  1  9.08184525  0.86707410  2.23524355  1
  Mo  Mo11  1  14.16603407  1.91177238  2.32044733  1
