,material_id,total_energy_per_atom, sym
1,-221.879684671839,0.393218055522667,bcc, "# generated using pymatgen
data_Mo
_symmetry_space_group_name_H-M   'P 1'
_cell_length_a   7.29789726
_cell_length_b   7.29789726
_cell_length_c   3.64894867
_cell_angle_alpha   90.00000000
_cell_angle_beta   90.00000000
_cell_angle_gamma   90.00000000
_symmetry_Int_Tables_number   1
_chemical_formula_structural   Mo
_chemical_formula_sum   Mo16
_cell_volume   194.34046797
_cell_formula_units_Z   16
loop_
 _symmetry_equiv_pos_site_id
 _symmetry_equiv_pos_as_xyz
  1  'x, y, z'
loop_
 _atom_site_type_symbol
 _atom_site_label
 _atom_site_symmetry_multiplicity
 _atom_site_fract_x
 _atom_site_fract_y
 _atom_site_fract_z
 _atom_site_occupancy
  Mo  Mo0  1  7.21717000  -0.01389040  0.09004500  1
  Mo  Mo1  1  1.75589000  1.82095000  -0.10913400  1
  Mo  Mo2  1  1.68099000  7.13211000  1.80109000  1
  Mo  Mo3  1  7.27372000  1.88034000  1.79395000  1
  Mo  Mo4  1  3.63359000  7.42566000  3.74001000  1
  Mo  Mo5  1  5.51512000  1.74494000  -0.00653309  1
  Mo  Mo6  1  5.43843000  7.39715000  1.88562000  1
  Mo  Mo7  1  3.50753000  1.80427000  1.90326000  1
  Mo  Mo8  1  7.36381000  3.72247000  3.56785000  1
  Mo  Mo9  1  1.78806000  5.52797000  -0.05592680  1
  Mo  Mo10  1  2.04122000  3.70719000  1.79727000  1
  Mo  Mo11  1  7.20592000  5.40665000  1.81584000  1
  Mo  Mo12  1  3.62942000  3.59459000  0.07024890  1
  Mo  Mo13  1  5.58847000  5.42294000  3.61533000  1
  Mo  Mo14  1  5.44322000  3.60053000  1.72354000  1
  Mo  Mo15  1  3.73724000  5.34802000  1.83058000  1
"
,material_id,total_energy_per_atom, sym
2,-221.879684671839,0.393218055522667,bcc, "# generated using pymatgen
data_Mo
_symmetry_space_group_name_H-M   'P 1'
_cell_length_a   7.29789726
_cell_length_b   7.29789726
_cell_length_c   3.64894867
_cell_angle_alpha   90.00000000
_cell_angle_beta   90.00000000
_cell_angle_gamma   90.00000000
_symmetry_Int_Tables_number   1
_chemical_formula_structural   Mo
_chemical_formula_sum   Mo16
_cell_volume   194.34046797
_cell_formula_units_Z   16
loop_
 _symmetry_equiv_pos_site_id
 _symmetry_equiv_pos_as_xyz
  1  'x, y, z'
loop_
 _atom_site_type_symbol
 _atom_site_label
 _atom_site_symmetry_multiplicity
 _atom_site_fract_x
 _atom_site_fract_y
 _atom_site_fract_z
 _atom_site_occupancy
  Mo  Mo0  1  7.20587000  -0.04609100  -0.00130056  1
  Mo  Mo1  1  1.98521000  1.58428000  0.08620670  1
  Mo  Mo2  1  1.88508000  7.29322000  1.80406000  1
  Mo  Mo3  1  7.25475000  1.67156000  1.68655000  1
  Mo  Mo4  1  3.68981000  7.31966000  3.65255000  1
  Mo  Mo5  1  5.49673000  1.90381000  0.00097795  1
  Mo  Mo6  1  5.40663000  7.34380000  1.86275000  1
  Mo  Mo7  1  3.65799000  1.87831000  1.86967000  1
  Mo  Mo8  1  7.32680000  3.53735000  3.56310000  1
  Mo  Mo9  1  1.75683000  5.52879000  -0.08440900  1
  Mo  Mo10  1  1.72286000  3.51029000  1.91437000  1
  Mo  Mo11  1  7.40554000  5.44451000  1.73218000  1
  Mo  Mo12  1  3.54496000  3.82234000  0.07687360  1
  Mo  Mo13  1  5.44038000  5.47869000  3.73485000  1
  Mo  Mo14  1  5.44252000  3.85106000  1.78873000  1
  Mo  Mo15  1  3.59786000  5.40029000  1.77589000  1
"  
,material_id,total_energy_per_atom, sym
1,-221.879684671839,0.393218055522667,bcc, "# generated using pymatgen
data_Mo
_symmetry_space_group_name_H-M   'P 1'
_cell_length_a   7.29789726
_cell_length_b   7.29789726
_cell_length_c   3.64894867
_cell_angle_alpha   90.00000000
_cell_angle_beta   90.00000000
_cell_angle_gamma   90.00000000
_symmetry_Int_Tables_number   1
_chemical_formula_structural   Mo
_chemical_formula_sum   Mo16
_cell_volume   194.34046797
_cell_formula_units_Z   16
loop_
 _symmetry_equiv_pos_site_id
 _symmetry_equiv_pos_as_xyz
  1  'x, y, z'
loop_
 _atom_site_type_symbol
 _atom_site_label
 _atom_site_symmetry_multiplicity
 _atom_site_fract_x
 _atom_site_fract_y
 _atom_site_fract_z
 _atom_site_occupancy
  Mo  Mo0  1  7.26201000  -0.04027810  0.07327250  1
  Mo  Mo1  1  1.84529000  1.68503000  0.03106420  1
  Mo  Mo2  1  1.88942000  7.19503000  1.83397000  1
  Mo  Mo3  1  7.39120000  1.89602000  1.93517000  1
  Mo  Mo4  1  3.78629000  7.38805000  3.66026000  1
  Mo  Mo5  1  5.42720000  1.86168000  -0.08637250  1
  Mo  Mo6  1  5.51348000  7.28636000  1.91174000  1
  Mo  Mo7  1  3.49707000  1.78175000  1.75875000  1
  Mo  Mo8  1  7.40754000  3.62454000  3.58415000  1
  Mo  Mo9  1  1.83282000  5.49526000  0.07117630  1
  Mo  Mo10  1  1.90336000  3.70782000  1.95822000  1
  Mo  Mo11  1  7.05597000  5.47145000  1.77801000  1
  Mo  Mo12  1  3.53533000  3.63720000  -0.09490090  1
  Mo  Mo13  1  5.46136000  5.45407000  3.56197000  1
  Mo  Mo14  1  5.40222000  3.57544000  1.70922000  1
  Mo  Mo15  1  3.60922000  5.50247000  1.77735000  1
"
