# generated using pymatgen
data_Mo
_symmetry_space_group_name_H-M   'P 1'
_cell_length_a   7.29789726
_cell_length_b   7.29789726
_cell_length_c   3.64894867
_cell_angle_alpha   90.00000000
_cell_angle_beta   90.00000000
_cell_angle_gamma   90.00000000
_symmetry_Int_Tables_number   1
_chemical_formula_structural   Mo
_chemical_formula_sum   Mo16
_cell_volume   194.34046797
_cell_formula_units_Z   16
loop_
 _symmetry_equiv_pos_site_id
 _symmetry_equiv_pos_as_xyz
  1  'x, y, z'
loop_
 _atom_site_type_symbol
 _atom_site_label
 _atom_site_symmetry_multiplicity
 _atom_site_fract_x
 _atom_site_fract_y
 _atom_site_fract_z
 _atom_site_occupancy
  Mo  Mo0  1  7.25704000  -0.11931300  -0.02468460  1
  Mo  Mo1  1  1.72900000  1.79199000  0.03021510  1
  Mo  Mo2  1  1.72656000  7.24268000  1.79015000  1
  Mo  Mo3  1  7.41931000  1.79167000  1.76394000  1
  Mo  Mo4  1  3.78877000  7.47714000  3.73534000  1
  Mo  Mo5  1  5.51145000  1.81174000  -0.04183270  1
  Mo  Mo6  1  5.43471000  7.28420000  1.67076000  1
  Mo  Mo7  1  3.52542000  1.84153000  1.94350000  1
  Mo  Mo8  1  7.29478000  3.53520000  3.62712000  1
  Mo  Mo9  1  1.99695000  5.57239000  -0.02059500  1
  Mo  Mo10  1  1.74278000  3.67455000  1.87934000  1
  Mo  Mo11  1  7.30291000  5.52074000  1.72642000  1
  Mo  Mo12  1  3.56195000  3.61639000  0.18415600  1
  Mo  Mo13  1  5.42841000  5.32822000  3.56158000  1
  Mo  Mo14  1  5.51371000  3.61381000  1.75798000  1
  Mo  Mo15  1  3.58605000  5.53896000  1.87967000  1
