# generated using pymatgen
data_Mo
_symmetry_space_group_name_H-M   'P 1'
_cell_length_a   7.29789726
_cell_length_b   7.29789726
_cell_length_c   3.64894867
_cell_angle_alpha   90.00000000
_cell_angle_beta   90.00000000
_cell_angle_gamma   90.00000000
_symmetry_Int_Tables_number   1
_chemical_formula_structural   Mo
_chemical_formula_sum   Mo16
_cell_volume   194.34046797
_cell_formula_units_Z   16
loop_
 _symmetry_equiv_pos_site_id
 _symmetry_equiv_pos_as_xyz
  1  'x, y, z'
loop_
 _atom_site_type_symbol
 _atom_site_label
 _atom_site_symmetry_multiplicity
 _atom_site_fract_x
 _atom_site_fract_y
 _atom_site_fract_z
 _atom_site_occupancy
  Mo  Mo0  1  7.20587000  -0.04609100  -0.00130056  1
  Mo  Mo1  1  1.98521000  1.58428000  0.08620670  1
  Mo  Mo2  1  1.88508000  7.29322000  1.80406000  1
  Mo  Mo3  1  7.25475000  1.67156000  1.68655000  1
  Mo  Mo4  1  3.68981000  7.31966000  3.65255000  1
  Mo  Mo5  1  5.49673000  1.90381000  0.00097795  1
  Mo  Mo6  1  5.40663000  7.34380000  1.86275000  1
  Mo  Mo7  1  3.65799000  1.87831000  1.86967000  1
  Mo  Mo8  1  7.32680000  3.53735000  3.56310000  1
  Mo  Mo9  1  1.75683000  5.52879000  -0.08440900  1
  Mo  Mo10  1  1.72286000  3.51029000  1.91437000  1
  Mo  Mo11  1  7.40554000  5.44451000  1.73218000  1
  Mo  Mo12  1  3.54496000  3.82234000  0.07687360  1
  Mo  Mo13  1  5.44038000  5.47869000  3.73485000  1
  Mo  Mo14  1  5.44252000  3.85106000  1.78873000  1
  Mo  Mo15  1  3.59786000  5.40029000  1.77589000  1
