# generated using pymatgen
data_Mo
_symmetry_space_group_name_H-M   'P 1'
_cell_length_a   7.29789726
_cell_length_b   7.29789726
_cell_length_c   3.64894867
_cell_angle_alpha   90.00000000
_cell_angle_beta   90.00000000
_cell_angle_gamma   90.00000000
_symmetry_Int_Tables_number   1
_chemical_formula_structural   Mo
_chemical_formula_sum   Mo16
_cell_volume   194.34046797
_cell_formula_units_Z   16
loop_
 _symmetry_equiv_pos_site_id
 _symmetry_equiv_pos_as_xyz
  1  'x, y, z'
loop_
 _atom_site_type_symbol
 _atom_site_label
 _atom_site_symmetry_multiplicity
 _atom_site_fract_x
 _atom_site_fract_y
 _atom_site_fract_z
 _atom_site_occupancy
  Mo  Mo0  1  7.26201000  -0.04027810  0.07327250  1
  Mo  Mo1  1  1.84529000  1.68503000  0.03106420  1
  Mo  Mo2  1  1.88942000  7.19503000  1.83397000  1
  Mo  Mo3  1  7.39120000  1.89602000  1.93517000  1
  Mo  Mo4  1  3.78629000  7.38805000  3.66026000  1
  Mo  Mo5  1  5.42720000  1.86168000  -0.08637250  1
  Mo  Mo6  1  5.51348000  7.28636000  1.91174000  1
  Mo  Mo7  1  3.49707000  1.78175000  1.75875000  1
  Mo  Mo8  1  7.40754000  3.62454000  3.58415000  1
  Mo  Mo9  1  1.83282000  5.49526000  0.07117630  1
  Mo  Mo10  1  1.90336000  3.70782000  1.95822000  1
  Mo  Mo11  1  7.05597000  5.47145000  1.77801000  1
  Mo  Mo12  1  3.53533000  3.63720000  -0.09490090  1
  Mo  Mo13  1  5.46136000  5.45407000  3.56197000  1
  Mo  Mo14  1  5.40222000  3.57544000  1.70922000  1
  Mo  Mo15  1  3.60922000  5.50247000  1.77735000  1
