# generated using pymatgen
data_Mo
_symmetry_space_group_name_H-M   'P 1'
_cell_length_a   7.29789726
_cell_length_b   7.29789726
_cell_length_c   3.64894867
_cell_angle_alpha   90.00000000
_cell_angle_beta   90.00000000
_cell_angle_gamma   90.00000000
_symmetry_Int_Tables_number   1
_chemical_formula_structural   Mo
_chemical_formula_sum   Mo16
_cell_volume   194.34046797
_cell_formula_units_Z   16
loop_
 _symmetry_equiv_pos_site_id
 _symmetry_equiv_pos_as_xyz
  1  'x, y, z'
loop_
 _atom_site_type_symbol
 _atom_site_label
 _atom_site_symmetry_multiplicity
 _atom_site_fract_x
 _atom_site_fract_y
 _atom_site_fract_z
 _atom_site_occupancy
  Mo  Mo0  1  7.32665000  0.07748090  -0.04968300  1
  Mo  Mo1  1  1.89459000  1.84140000  -0.14501300  1
  Mo  Mo2  1  1.94527000  7.22374000  1.77079000  1
  Mo  Mo3  1  7.30952000  1.85658000  1.67474000  1
  Mo  Mo4  1  3.55922000  7.15035000  3.64934000  1
  Mo  Mo5  1  5.41771000  1.76384000  -0.00954341  1
  Mo  Mo6  1  5.44579000  7.35730000  1.81924000  1
  Mo  Mo7  1  3.56799000  1.70822000  1.69638000  1
  Mo  Mo8  1  7.27285000  3.69457000  3.61346000  1
  Mo  Mo9  1  1.66602000  5.45355000  0.15305700  1
  Mo  Mo10  1  1.94458000  3.69390000  1.74550000  1
  Mo  Mo11  1  7.22470000  5.55820000  1.93440000  1
  Mo  Mo12  1  3.56721000  3.69323000  0.05189490  1
  Mo  Mo13  1  5.53402000  5.53289000  3.70227000  1
  Mo  Mo14  1  5.43393000  3.56569000  1.98474000  1
  Mo  Mo15  1  3.70973000  5.35097000  1.87149000  1
