# generated using pymatgen
data_Mo
_symmetry_space_group_name_H-M   'P 1'
_cell_length_a   7.29789726
_cell_length_b   7.29789726
_cell_length_c   3.64894867
_cell_angle_alpha   90.00000000
_cell_angle_beta   90.00000000
_cell_angle_gamma   90.00000000
_symmetry_Int_Tables_number   1
_chemical_formula_structural   Mo
_chemical_formula_sum   Mo16
_cell_volume   194.34046797
_cell_formula_units_Z   16
loop_
 _symmetry_equiv_pos_site_id
 _symmetry_equiv_pos_as_xyz
  1  'x, y, z'
loop_
 _atom_site_type_symbol
 _atom_site_label
 _atom_site_symmetry_multiplicity
 _atom_site_fract_x
 _atom_site_fract_y
 _atom_site_fract_z
 _atom_site_occupancy
  Mo  Mo0  1  7.25912000  -0.10231600  -0.03774470  1
  Mo  Mo1  1  1.85386000  1.76772000  0.03845560  1
  Mo  Mo2  1  1.69389000  7.15094000  1.63105000  1
  Mo  Mo3  1  7.33202000  1.88765000  1.87217000  1
  Mo  Mo4  1  3.70562000  7.27511000  3.60863000  1
  Mo  Mo5  1  5.54442000  1.90684000  -0.03297880  1
  Mo  Mo6  1  5.60987000  7.27564000  1.78485000  1
  Mo  Mo7  1  3.75462000  1.77798000  1.84896000  1
  Mo  Mo8  1  7.33036000  3.56443000  3.79699000  1
  Mo  Mo9  1  1.85799000  5.64245000  -0.09046680  1
  Mo  Mo10  1  1.80850000  3.67614000  1.86982000  1
  Mo  Mo11  1  7.33715000  5.35395000  1.85184000  1
  Mo  Mo12  1  3.45633000  3.53989000  0.07674850  1
  Mo  Mo13  1  5.33846000  5.47171000  3.58437000  1
  Mo  Mo14  1  5.33132000  3.74642000  1.71332000  1
  Mo  Mo15  1  3.60627000  5.58735000  1.94705000  1
