# generated using pymatgen
data_Mo
_symmetry_space_group_name_H-M   'P 1'
_cell_length_a   7.29789726
_cell_length_b   7.29789726
_cell_length_c   3.64894867
_cell_angle_alpha   90.00000000
_cell_angle_beta   90.00000000
_cell_angle_gamma   90.00000000
_symmetry_Int_Tables_number   1
_chemical_formula_structural   Mo
_chemical_formula_sum   Mo16
_cell_volume   194.34046797
_cell_formula_units_Z   16
loop_
 _symmetry_equiv_pos_site_id
 _symmetry_equiv_pos_as_xyz
  1  'x, y, z'
loop_
 _atom_site_type_symbol
 _atom_site_label
 _atom_site_symmetry_multiplicity
 _atom_site_fract_x
 _atom_site_fract_y
 _atom_site_fract_z
 _atom_site_occupancy
  Mo  Mo0  1  7.24513000  -0.06123440  0.08836700  1
  Mo  Mo1  1  1.88449000  1.82731000  -0.11387600  1
  Mo  Mo2  1  1.91617000  7.30256000  1.78436000  1
  Mo  Mo3  1  7.30655000  1.84257000  1.97436000  1
  Mo  Mo4  1  3.62132000  7.26983000  3.55406000  1
  Mo  Mo5  1  5.39694000  1.71604000  0.00506352  1
  Mo  Mo6  1  5.41789000  7.31668000  1.82900000  1
  Mo  Mo7  1  3.73546000  1.85679000  1.71065000  1
  Mo  Mo8  1  7.47341000  3.67149000  3.67473000  1
  Mo  Mo9  1  1.72390000  5.51427000  0.05498150  1
  Mo  Mo10  1  1.76357000  3.62360000  1.75721000  1
  Mo  Mo11  1  7.29653000  5.56326000  1.86577000  1
  Mo  Mo12  1  3.57298000  3.69709000  0.05025260  1
  Mo  Mo13  1  5.54038000  5.39110000  3.66298000  1
  Mo  Mo14  1  5.38687000  3.65601000  1.79030000  1
  Mo  Mo15  1  3.53819000  5.33453000  1.77483000  1
