# generated using pymatgen
data_Mo
_symmetry_space_group_name_H-M   'P 1'
_cell_length_a   7.29789726
_cell_length_b   7.29789726
_cell_length_c   3.64894867
_cell_angle_alpha   90.00000000
_cell_angle_beta   90.00000000
_cell_angle_gamma   90.00000000
_symmetry_Int_Tables_number   1
_chemical_formula_structural   Mo
_chemical_formula_sum   Mo16
_cell_volume   194.34046797
_cell_formula_units_Z   16
loop_
 _symmetry_equiv_pos_site_id
 _symmetry_equiv_pos_as_xyz
  1  'x, y, z'
loop_
 _atom_site_type_symbol
 _atom_site_label
 _atom_site_symmetry_multiplicity
 _atom_site_fract_x
 _atom_site_fract_y
 _atom_site_fract_z
 _atom_site_occupancy
  Mo  Mo0  1  7.14526000  -0.07068260  -0.04309970  1
  Mo  Mo1  1  1.97946000  1.91026000  0.00456844  1
  Mo  Mo2  1  1.66810000  7.29596000  1.94423000  1
  Mo  Mo3  1  7.51625000  1.82398000  1.70637000  1
  Mo  Mo4  1  3.69049000  7.20482000  3.66748000  1
  Mo  Mo5  1  5.44540000  1.76823000  0.06241750  1
  Mo  Mo6  1  5.65826000  7.39647000  1.87991000  1
  Mo  Mo7  1  3.70024000  1.79715000  1.84058000  1
  Mo  Mo8  1  7.25517000  3.78745000  3.44878000  1
  Mo  Mo9  1  1.82110000  5.43986000  0.04976580  1
  Mo  Mo10  1  1.76749000  3.79910000  1.77212000  1
  Mo  Mo11  1  7.18491000  5.50787000  1.76739000  1
  Mo  Mo12  1  3.51536000  3.52398000  -0.02469920  1
  Mo  Mo13  1  5.38912000  5.36913000  3.69276000  1
  Mo  Mo14  1  5.36201000  3.53494000  1.86215000  1
  Mo  Mo15  1  3.72118000  5.43337000  1.83234000  1
