# generated using pymatgen
data_Mo
_symmetry_space_group_name_H-M   'P 1'
_cell_length_a   8.48767290
_cell_length_b   6.86810821
_cell_length_c   3.44581890
_cell_angle_alpha   90.00000000
_cell_angle_beta   90.00000000
_cell_angle_gamma   90.00000000
_symmetry_Int_Tables_number   1
_chemical_formula_structural   Mo
_chemical_formula_sum   Mo16
_cell_volume   200.87144887
_cell_formula_units_Z   16
loop_
 _symmetry_equiv_pos_site_id
 _symmetry_equiv_pos_as_xyz
  1  'x, y, z'
loop_
 _atom_site_type_symbol
 _atom_site_label
 _atom_site_symmetry_multiplicity
 _atom_site_fract_x
 _atom_site_fract_y
 _atom_site_fract_z
 _atom_site_occupancy
  Mo  Mo0  1  1.93381000  2.32666000  0.29417400  1
  Mo  Mo1  1  1.93347000  0.61082800  2.03217000  1
  Mo  Mo2  1  -0.19175000  2.33051000  2.02146000  1
  Mo  Mo3  1  4.07155000  7.49553000  3.75440000  1
  Mo  Mo4  1  4.05249000  2.33209000  2.01662000  1
  Mo  Mo5  1  -0.21428200  4.06151000  3.74655000  1
  Mo  Mo6  1  1.92386000  5.76504000  0.29811000  1
  Mo  Mo7  1  1.91046000  4.04567000  2.03462000  1
  Mo  Mo8  1  -0.19628000  5.77343000  2.02077000  1
  Mo  Mo9  1  4.04097000  4.05012000  0.29576900  1
  Mo  Mo10  1  4.04040000  5.77350000  2.02422000  1
  Mo  Mo11  1  8.29915000  7.48876000  3.75961000  1
  Mo  Mo12  1  6.19177000  2.33126000  0.29080500  1
  Mo  Mo13  1  6.16871000  0.60568200  2.03090000  1
  Mo  Mo14  1  6.17748000  5.76556000  0.30014500  1
  Mo  Mo15  1  6.17052000  4.04385000  2.03386000  1
