# generated using pymatgen
data_Mo
_symmetry_space_group_name_H-M   'P 1'
_cell_length_a   8.32173239
_cell_length_b   6.93242794
_cell_length_c   3.46218610
_cell_angle_alpha   90.00000000
_cell_angle_beta   90.00000000
_cell_angle_gamma   90.00000000
_symmetry_Int_Tables_number   1
_chemical_formula_structural   Mo
_chemical_formula_sum   Mo16
_cell_volume   199.73285882
_cell_formula_units_Z   16
loop_
 _symmetry_equiv_pos_site_id
 _symmetry_equiv_pos_as_xyz
  1  'x, y, z'
loop_
 _atom_site_type_symbol
 _atom_site_label
 _atom_site_symmetry_multiplicity
 _atom_site_fract_x
 _atom_site_fract_y
 _atom_site_fract_z
 _atom_site_occupancy
  Mo  Mo0  1  1.96623000  2.30869000  0.30470700  1
  Mo  Mo1  1  1.95894000  0.57961000  2.01749000  1
  Mo  Mo2  1  -0.11270500  2.32640000  2.02326000  1
  Mo  Mo3  1  4.04326000  7.52107000  3.74425000  1
  Mo  Mo4  1  4.04372000  2.32295000  2.03899000  1
  Mo  Mo5  1  -0.10054800  4.05495000  3.75363000  1
  Mo  Mo6  1  1.97273000  5.77159000  0.29950400  1
  Mo  Mo7  1  1.97656000  4.04823000  2.01607000  1
  Mo  Mo8  1  -0.10465300  5.78789000  2.02259000  1
  Mo  Mo9  1  4.06350000  4.05384000  0.29611400  1
  Mo  Mo10  1  4.05409000  5.79647000  2.03054000  1
  Mo  Mo11  1  8.20424000  7.52162000  3.73958000  1
  Mo  Mo12  1  6.12307000  2.31181000  0.31212200  1
  Mo  Mo13  1  6.11727000  0.57663800  2.01953000  1
  Mo  Mo14  1  6.13606000  5.77901000  0.30163100  1
  Mo  Mo15  1  6.13650000  4.03922000  2.01782000  1
