# generated using pymatgen
data_Mo
_symmetry_space_group_name_H-M   'P 1'
_cell_length_a   7.64050634
_cell_length_b   7.14120352
_cell_length_c   3.56986642
_cell_angle_alpha   90.00000000
_cell_angle_beta   90.00000000
_cell_angle_gamma   90.00000000
_symmetry_Int_Tables_number   1
_chemical_formula_structural   Mo
_chemical_formula_sum   Mo16
_cell_volume   194.78051806
_cell_formula_units_Z   16
loop_
 _symmetry_equiv_pos_site_id
 _symmetry_equiv_pos_as_xyz
  1  'x, y, z'
loop_
 _atom_site_type_symbol
 _atom_site_label
 _atom_site_symmetry_multiplicity
 _atom_site_fract_x
 _atom_site_fract_y
 _atom_site_fract_z
 _atom_site_occupancy
  Mo  Mo0  1  0.23102100  7.61696000  3.80654000  1
  Mo  Mo1  1  2.13527000  2.27492000  0.22728100  1
  Mo  Mo2  1  2.12757000  0.48211200  2.03489000  1
  Mo  Mo3  1  0.22259500  2.25950000  2.01438000  1
  Mo  Mo4  1  4.03864000  7.61388000  3.81915000  1
  Mo  Mo5  1  5.94965000  2.26416000  0.23278800  1
  Mo  Mo6  1  5.96226000  0.49049300  2.04129000  1
  Mo  Mo7  1  4.04585000  2.25635000  2.02462000  1
  Mo  Mo8  1  7.87621000  4.04020000  0.23622700  1
  Mo  Mo9  1  2.14112000  5.84355000  0.23802400  1
  Mo  Mo10  1  2.16113000  4.05479000  2.01690000  1
  Mo  Mo11  1  0.22790200  5.82657000  2.03062000  1
  Mo  Mo12  1  4.05060000  4.04872000  0.24886200  1
  Mo  Mo13  1  5.95696000  5.84039000  3.80632000  1
  Mo  Mo14  1  5.97298000  4.05872000  2.02224000  1
  Mo  Mo15  1  4.05974000  5.82870000  2.02998000  1
