# generated using pymatgen
data_Mo
_symmetry_space_group_name_H-M   'P 1'
_cell_length_a   7.79916811
_cell_length_b   7.08775866
_cell_length_c   3.54391360
_cell_angle_alpha   90.00000000
_cell_angle_beta   90.00000000
_cell_angle_gamma   90.00000000
_symmetry_Int_Tables_number   1
_chemical_formula_structural   Mo
_chemical_formula_sum   Mo16
_cell_volume   195.90265802
_cell_formula_units_Z   16
loop_
 _symmetry_equiv_pos_site_id
 _symmetry_equiv_pos_as_xyz
  1  'x, y, z'
loop_
 _atom_site_type_symbol
 _atom_site_label
 _atom_site_symmetry_multiplicity
 _atom_site_fract_x
 _atom_site_fract_y
 _atom_site_fract_z
 _atom_site_occupancy
  Mo  Mo0  1  0.12758700  7.58854000  3.78539000  1
  Mo  Mo1  1  2.08533000  2.28159000  0.26020500  1
  Mo  Mo2  1  2.09677000  0.50959300  2.01470000  1
  Mo  Mo3  1  0.14322000  2.27435000  2.03254000  1
  Mo  Mo4  1  4.04506000  7.59208000  3.79298000  1
  Mo  Mo5  1  6.00464000  2.28004000  0.26009500  1
  Mo  Mo6  1  5.99791000  0.50936900  2.01912000  1
  Mo  Mo7  1  4.04248000  2.28571000  2.03387000  1
  Mo  Mo8  1  7.95734000  4.04762000  0.25652300  1
  Mo  Mo9  1  2.10355000  5.82630000  0.24780500  1
  Mo  Mo10  1  2.10531000  4.04883000  2.02376000  1
  Mo  Mo11  1  0.15358800  5.82402000  2.02167000  1
  Mo  Mo12  1  4.06834000  4.04612000  0.26423700  1
  Mo  Mo13  1  6.00951000  5.81638000  3.79167000  1
  Mo  Mo14  1  6.01180000  4.05831000  2.02824000  1
  Mo  Mo15  1  4.04839000  5.81115000  2.02329000  1
