# generated using pymatgen
data_Mo
_symmetry_space_group_name_H-M   'P 1'
_cell_length_a   7.54443601
_cell_length_b   7.17592478
_cell_length_c   3.58648467
_cell_angle_alpha   90.00000000
_cell_angle_beta   90.00000000
_cell_angle_gamma   90.00000000
_symmetry_Int_Tables_number   1
_chemical_formula_structural   Mo
_chemical_formula_sum   Mo16
_cell_volume   194.16620199
_cell_formula_units_Z   16
loop_
 _symmetry_equiv_pos_site_id
 _symmetry_equiv_pos_as_xyz
  1  'x, y, z'
loop_
 _atom_site_type_symbol
 _atom_site_label
 _atom_site_symmetry_multiplicity
 _atom_site_fract_x
 _atom_site_fract_y
 _atom_site_fract_z
 _atom_site_occupancy
  Mo  Mo0  1  0.28548700  7.63598000  3.80920000  1
  Mo  Mo1  1  2.17411000  2.25783000  0.24597800  1
  Mo  Mo2  1  2.16170000  0.46635800  2.01144000  1
  Mo  Mo3  1  0.27567700  2.26101000  2.04876000  1
  Mo  Mo4  1  4.05183000  7.63332000  3.79991000  1
  Mo  Mo5  1  5.94633000  2.25848000  0.24049100  1
  Mo  Mo6  1  5.94765000  0.46603300  2.00582000  1
  Mo  Mo7  1  4.05716000  2.25365000  2.03736000  1
  Mo  Mo8  1  7.81284000  4.04622000  0.23252300  1
  Mo  Mo9  1  2.16397000  5.83845000  0.23078500  1
  Mo  Mo10  1  2.14994000  4.05839000  2.02656000  1
  Mo  Mo11  1  0.26562200  5.83748000  2.03013000  1
  Mo  Mo12  1  4.04095000  4.04588000  0.22302400  1
  Mo  Mo13  1  5.94134000  5.84494000  3.81932000  1
  Mo  Mo14  1  5.92935000  4.05261000  2.02201000  1
  Mo  Mo15  1  4.05160000  5.84337000  2.03019000  1
