# generated using pymatgen
data_Mo
_symmetry_space_group_name_H-M   'P 1'
_cell_length_a   7.43672103
_cell_length_b   7.21657234
_cell_length_c   3.60618854
_cell_angle_alpha   90.00000000
_cell_angle_beta   90.00000000
_cell_angle_gamma   90.00000000
_symmetry_Int_Tables_number   1
_chemical_formula_structural   Mo
_chemical_formula_sum   Mo16
_cell_volume   193.53561114
_cell_formula_units_Z   16
loop_
 _symmetry_equiv_pos_site_id
 _symmetry_equiv_pos_as_xyz
  1  'x, y, z'
loop_
 _atom_site_type_symbol
 _atom_site_label
 _atom_site_symmetry_multiplicity
 _atom_site_fract_x
 _atom_site_fract_y
 _atom_site_fract_z
 _atom_site_occupancy
  Mo  Mo0  1  0.33497100  7.64533000  3.81701000  1
  Mo  Mo1  1  2.19198000  2.25174000  0.24099800  1
  Mo  Mo2  1  2.19238000  0.45026400  2.01257000  1
  Mo  Mo3  1  0.33635500  2.24016000  2.04703000  1
  Mo  Mo4  1  4.06928000  7.64984000  3.81187000  1
  Mo  Mo5  1  5.93016000  2.24990000  0.23132900  1
  Mo  Mo6  1  5.91037000  0.45244600  2.00958000  1
  Mo  Mo7  1  4.05184000  2.25077000  2.02865000  1
  Mo  Mo8  1  7.74957000  4.04348000  0.22786100  1
  Mo  Mo9  1  2.19017000  5.86346000  0.22589200  1
  Mo  Mo10  1  2.18020000  4.05162000  2.01438000  1
  Mo  Mo11  1  0.33072200  5.85426000  2.03241000  1
  Mo  Mo12  1  4.04101000  4.04023000  0.22266000  1
  Mo  Mo13  1  5.91000000  5.85553000  3.83144000  1
  Mo  Mo14  1  5.90197000  4.06199000  2.01264000  1
  Mo  Mo15  1  4.04231000  5.83898000  2.02750000  1
