# generated using pymatgen
data_Mo
_symmetry_space_group_name_H-M   'P 1'
_cell_length_a   7.32900560
_cell_length_b   7.25599515
_cell_length_c   3.62902713
_cell_angle_alpha   90.00000000
_cell_angle_beta   90.00000000
_cell_angle_gamma   90.00000000
_symmetry_Int_Tables_number   1
_chemical_formula_structural   Mo
_chemical_formula_sum   Mo16
_cell_volume   192.98886511
_cell_formula_units_Z   16
loop_
 _symmetry_equiv_pos_site_id
 _symmetry_equiv_pos_as_xyz
  1  'x, y, z'
loop_
 _atom_site_type_symbol
 _atom_site_label
 _atom_site_symmetry_multiplicity
 _atom_site_fract_x
 _atom_site_fract_y
 _atom_site_fract_z
 _atom_site_occupancy
  Mo  Mo0  1  0.39168400  7.66539000  3.82715000  1
  Mo  Mo1  1  2.22376000  2.23668000  0.21747100  1
  Mo  Mo2  1  2.21955000  0.43023600  2.02122000  1
  Mo  Mo3  1  0.38568600  2.22736000  2.03840000  1
  Mo  Mo4  1  4.05310000  7.67512000  3.82822000  1
  Mo  Mo5  1  5.88199000  2.23727000  0.21324800  1
  Mo  Mo6  1  5.86208000  0.43222100  2.02228000  1
  Mo  Mo7  1  4.05339000  2.22947000  2.03160000  1
  Mo  Mo8  1  7.71863000  4.04682000  0.20445800  1
  Mo  Mo9  1  2.22475000  5.87415000  0.21484600  1
  Mo  Mo10  1  2.21021000  4.05420000  2.01405000  1
  Mo  Mo11  1  0.39274100  5.86403000  2.03774000  1
  Mo  Mo12  1  4.04195000  4.03896000  0.20540100  1
  Mo  Mo13  1  5.87865000  5.86547000  3.84317000  1
  Mo  Mo14  1  5.88353000  4.06208000  2.01558000  1
  Mo  Mo15  1  4.04932000  5.86055000  2.03615000  1
