# generated using pymatgen
data_Mo
_symmetry_space_group_name_H-M   'P 1'
_cell_length_a   8.05098929
_cell_length_b   7.00925952
_cell_length_c   3.50493979
_cell_angle_alpha   90.00000000
_cell_angle_beta   90.00000000
_cell_angle_gamma   90.00000000
_symmetry_Int_Tables_number   1
_chemical_formula_structural   Mo
_chemical_formula_sum   Mo16
_cell_volume   197.78891651
_cell_formula_units_Z   16
loop_
 _symmetry_equiv_pos_site_id
 _symmetry_equiv_pos_as_xyz
  1  'x, y, z'
loop_
 _atom_site_type_symbol
 _atom_site_label
 _atom_site_symmetry_multiplicity
 _atom_site_fract_x
 _atom_site_fract_y
 _atom_site_fract_z
 _atom_site_occupancy
  Mo  Mo0  1  0.03050900  7.54776000  3.78293000  1
  Mo  Mo1  1  2.03401000  2.30142000  0.26623400  1
  Mo  Mo2  1  2.05053000  0.55187600  2.02543000  1
  Mo  Mo3  1  0.02969650  2.28884000  2.01877000  1
  Mo  Mo4  1  4.05817000  7.55447000  3.78781000  1
  Mo  Mo5  1  6.06044000  2.30789000  0.26916000  1
  Mo  Mo6  1  6.06220000  0.54589800  2.02624000  1
  Mo  Mo7  1  4.04980000  2.30151000  2.02393000  1
  Mo  Mo8  1  8.07446000  4.04579000  0.26832000  1
  Mo  Mo9  1  2.03607000  5.80336000  0.27340300  1
  Mo  Mo10  1  2.03904000  4.05460000  2.01844000  1
  Mo  Mo11  1  0.02871510  5.80409000  2.02438000  1
  Mo  Mo12  1  4.04355000  4.04139000  0.27327000  1
  Mo  Mo13  1  6.04829000  5.80122000  3.78378000  1
  Mo  Mo14  1  6.06083000  4.05670000  2.01954000  1
  Mo  Mo15  1  4.04269000  5.79319000  2.03343000  1
