# generated using pymatgen
data_Mo
_symmetry_space_group_name_H-M   'P 1'
_cell_length_a   7.81081322
_cell_length_b   7.08287573
_cell_length_c   3.54254246
_cell_angle_alpha   90.00000000
_cell_angle_beta   90.00000000
_cell_angle_gamma   90.00000000
_symmetry_Int_Tables_number   1
_chemical_formula_structural   Mo
_chemical_formula_sum   Mo16
_cell_volume   195.98414498
_cell_formula_units_Z   16
loop_
 _symmetry_equiv_pos_site_id
 _symmetry_equiv_pos_as_xyz
  1  'x, y, z'
loop_
 _atom_site_type_symbol
 _atom_site_label
 _atom_site_symmetry_multiplicity
 _atom_site_fract_x
 _atom_site_fract_y
 _atom_site_fract_z
 _atom_site_occupancy
  Mo  Mo0  1  0.15916800  7.59479000  3.80267000  1
  Mo  Mo1  1  2.10423000  2.27314000  0.25056000  1
  Mo  Mo2  1  2.10542000  0.50609700  2.03339000  1
  Mo  Mo3  1  0.14657000  2.27903000  2.02397000  1
  Mo  Mo4  1  4.05368000  7.59995000  3.79109000  1
  Mo  Mo5  1  5.99942000  2.27941000  0.25060100  1
  Mo  Mo6  1  5.99859000  0.50162700  2.02738000  1
  Mo  Mo7  1  4.05681000  2.27821000  2.02021000  1
  Mo  Mo8  1  7.95148000  4.05786000  0.25101300  1
  Mo  Mo9  1  2.09761000  5.81478000  0.26060900  1
  Mo  Mo10  1  2.09371000  4.04879000  2.02739000  1
  Mo  Mo11  1  0.14506500  5.82682000  2.03381000  1
  Mo  Mo12  1  4.03232000  4.04931000  0.23982000  1
  Mo  Mo13  1  5.99028000  5.81815000  3.79924000  1
  Mo  Mo14  1  6.00475000  4.04551000  2.02099000  1
  Mo  Mo15  1  4.05008000  5.82652000  2.02474000  1
