# generated using pymatgen
data_Mo
_symmetry_space_group_name_H-M   'P 1'
_cell_length_a   7.57063714
_cell_length_b   7.16674951
_cell_length_c   3.58177352
_cell_angle_alpha   90.00000000
_cell_angle_beta   90.00000000
_cell_angle_gamma   90.00000000
_symmetry_Int_Tables_number   1
_chemical_formula_structural   Mo
_chemical_formula_sum   Mo16
_cell_volume   194.33578429
_cell_formula_units_Z   16
loop_
 _symmetry_equiv_pos_site_id
 _symmetry_equiv_pos_as_xyz
  1  'x, y, z'
loop_
 _atom_site_type_symbol
 _atom_site_label
 _atom_site_symmetry_multiplicity
 _atom_site_fract_x
 _atom_site_fract_y
 _atom_site_fract_z
 _atom_site_occupancy
  Mo  Mo0  1  0.25725600  7.62581000  3.80409000  1
  Mo  Mo1  1  2.15256000  2.25804000  0.24274400  1
  Mo  Mo2  1  2.13926000  0.47116900  2.01589000  1
  Mo  Mo3  1  0.25892400  2.25726000  2.03045000  1
  Mo  Mo4  1  4.04812000  7.62974000  3.81368000  1
  Mo  Mo5  1  5.94565000  2.25777000  0.24294300  1
  Mo  Mo6  1  5.92422000  0.46965300  2.01945000  1
  Mo  Mo7  1  4.04835000  2.26741000  2.03155000  1
  Mo  Mo8  1  7.84167000  4.04735000  0.22548600  1
  Mo  Mo9  1  2.16568000  5.84701000  0.24184700  1
  Mo  Mo10  1  2.16193000  4.04812000  2.00600000  1
  Mo  Mo11  1  0.27246300  5.84541000  2.03021000  1
  Mo  Mo12  1  4.05475000  4.04690000  0.23476400  1
  Mo  Mo13  1  5.94777000  5.83891000  3.82923000  1
  Mo  Mo14  1  5.95357000  4.05540000  2.01035000  1
  Mo  Mo15  1  4.05721000  5.83405000  2.03954000  1
