# generated using pymatgen
data_Mo
_symmetry_space_group_name_H-M   'P 1'
_cell_length_a   7.56481481
_cell_length_b   7.16666639
_cell_length_c   3.58369112
_cell_angle_alpha   90.00000000
_cell_angle_beta   90.00000000
_cell_angle_gamma   90.00000000
_symmetry_Int_Tables_number   1
_chemical_formula_structural   Mo
_chemical_formula_sum   Mo16
_cell_volume   194.28803659
_cell_formula_units_Z   16
loop_
 _symmetry_equiv_pos_site_id
 _symmetry_equiv_pos_as_xyz
  1  'x, y, z'
loop_
 _atom_site_type_symbol
 _atom_site_label
 _atom_site_symmetry_multiplicity
 _atom_site_fract_x
 _atom_site_fract_y
 _atom_site_fract_z
 _atom_site_occupancy
  Mo  Mo0  1  0.25138900  7.62371000  3.82087000  1
  Mo  Mo1  1  2.15725000  2.25644000  0.22308800  1
  Mo  Mo2  1  2.16570000  0.47951900  2.02230000  1
  Mo  Mo3  1  0.26888900  2.25267000  2.01805000  1
  Mo  Mo4  1  4.03776000  7.62487000  3.82594000  1
  Mo  Mo5  1  5.93217000  2.26303000  0.23214700  1
  Mo  Mo6  1  5.93037000  0.47350900  2.02424000  1
  Mo  Mo7  1  4.04004000  2.25030000  2.03446000  1
  Mo  Mo8  1  7.83840000  4.04438000  0.21826100  1
  Mo  Mo9  1  2.16299000  5.84775000  0.23886900  1
  Mo  Mo10  1  2.17158000  4.06077000  2.01778000  1
  Mo  Mo11  1  0.27863100  5.83337000  2.03226000  1
  Mo  Mo12  1  4.05855000  4.04302000  0.22313700  1
  Mo  Mo13  1  5.94632000  5.85257000  3.82582000  1
  Mo  Mo14  1  5.94882000  4.05377000  2.01898000  1
  Mo  Mo15  1  4.04633000  5.84031000  2.04011000  1
