# generated using pymatgen
data_Mo
_symmetry_space_group_name_H-M   'P 1'
_cell_length_a   7.60848290
_cell_length_b   7.15253702
_cell_length_c   3.57548022
_cell_angle_alpha   90.00000000
_cell_angle_beta   90.00000000
_cell_angle_gamma   90.00000000
_symmetry_Int_Tables_number   1
_chemical_formula_structural   Mo
_chemical_formula_sum   Mo16
_cell_volume   194.57747488
_cell_formula_units_Z   16
loop_
 _symmetry_equiv_pos_site_id
 _symmetry_equiv_pos_as_xyz
  1  'x, y, z'
loop_
 _atom_site_type_symbol
 _atom_site_label
 _atom_site_symmetry_multiplicity
 _atom_site_fract_x
 _atom_site_fract_y
 _atom_site_fract_z
 _atom_site_occupancy
  Mo  Mo0  1  0.23980800  7.63167000  3.82508000  1
  Mo  Mo1  1  2.14256000  2.26090000  0.22796200  1
  Mo  Mo2  1  2.13732000  0.47066600  2.02923000  1
  Mo  Mo3  1  0.23533600  2.26934000  2.00824000  1
  Mo  Mo4  1  4.03823000  7.62942000  3.82825000  1
  Mo  Mo5  1  5.94063000  2.26592000  0.23308300  1
  Mo  Mo6  1  5.94882000  0.46594500  2.03025000  1
  Mo  Mo7  1  4.05229000  2.26148000  2.01850000  1
  Mo  Mo8  1  7.87128000  4.05358000  0.24027000  1
  Mo  Mo9  1  2.14578000  5.83349000  0.22964400  1
  Mo  Mo10  1  2.14744000  4.04986000  2.03642000  1
  Mo  Mo11  1  0.24397400  5.83067000  2.00620000  1
  Mo  Mo12  1  4.06329000  4.05403000  0.24363600  1
  Mo  Mo13  1  5.95902000  5.84071000  3.81164000  1
  Mo  Mo14  1  5.96513000  4.03962000  2.03763000  1
  Mo  Mo15  1  4.06060000  5.84270000  2.01848000  1
