# generated using pymatgen
data_Mo
_symmetry_space_group_name_H-M   'P 1'
_cell_length_a   7.89669438
_cell_length_b   7.05726290
_cell_length_c   3.52825952
_cell_angle_alpha   90.00000000
_cell_angle_beta   90.00000000
_cell_angle_gamma   90.00000000
_symmetry_Int_Tables_number   1
_chemical_formula_structural   Mo
_chemical_formula_sum   Mo16
_cell_volume   196.62654476
_cell_formula_units_Z   16
loop_
 _symmetry_equiv_pos_site_id
 _symmetry_equiv_pos_as_xyz
  1  'x, y, z'
loop_
 _atom_site_type_symbol
 _atom_site_label
 _atom_site_symmetry_multiplicity
 _atom_site_fract_x
 _atom_site_fract_y
 _atom_site_fract_z
 _atom_site_occupancy
  Mo  Mo0  1  0.12052500  7.57322000  3.80069000  1
  Mo  Mo1  1  2.08542000  2.28812000  0.25541900  1
  Mo  Mo2  1  2.07774000  0.52821000  2.02534000  1
  Mo  Mo3  1  0.10556800  2.27202000  2.02236000  1
  Mo  Mo4  1  4.05674000  7.57623000  3.79792000  1
  Mo  Mo5  1  6.02598000  2.29551000  0.25416600  1
  Mo  Mo6  1  6.02106000  0.52156200  2.02293000  1
  Mo  Mo7  1  4.05822000  2.27801000  2.02095000  1
  Mo  Mo8  1  7.99386000  4.04564000  0.27254200  1
  Mo  Mo9  1  2.07933000  5.82106000  0.24771200  1
  Mo  Mo10  1  2.06845000  4.05787000  2.03545000  1
  Mo  Mo11  1  0.10033500  5.81195000  2.01047000  1
  Mo  Mo12  1  4.03121000  4.04128000  0.26965400  1
  Mo  Mo13  1  6.01200000  5.82640000  3.78215000  1
  Mo  Mo14  1  6.01594000  4.05354000  2.03390000  1
  Mo  Mo15  1  4.05092000  5.80938000  2.02010000  1
