# generated using pymatgen
data_Mo
_symmetry_space_group_name_H-M   'P 1'
_cell_length_a   8.16598203
_cell_length_b   6.97612339
_cell_length_c   3.48722768
_cell_angle_alpha   90.00000000
_cell_angle_beta   90.00000000
_cell_angle_gamma   90.00000000
_symmetry_Int_Tables_number   1
_chemical_formula_structural   Mo
_chemical_formula_sum   Mo16
_cell_volume   198.65654429
_cell_formula_units_Z   16
loop_
 _symmetry_equiv_pos_site_id
 _symmetry_equiv_pos_as_xyz
  1  'x, y, z'
loop_
 _atom_site_type_symbol
 _atom_site_label
 _atom_site_symmetry_multiplicity
 _atom_site_fract_x
 _atom_site_fract_y
 _atom_site_fract_z
 _atom_site_occupancy
  Mo  Mo0  1  -0.03926080  7.54100000  3.76145000  1
  Mo  Mo1  1  2.00033000  2.30252000  0.28064700  1
  Mo  Mo2  1  2.01836000  0.55302600  2.03073000  1
  Mo  Mo3  1  -0.04139700  2.30288000  2.01519000  1
  Mo  Mo4  1  4.04405000  7.55177000  3.77278000  1
  Mo  Mo5  1  6.08984000  2.30118000  0.28195800  1
  Mo  Mo6  1  6.10062000  0.55547900  2.03656000  1
  Mo  Mo7  1  4.05870000  2.30848000  2.02007000  1
  Mo  Mo8  1  8.13887000  4.05923000  0.29196300  1
  Mo  Mo9  1  2.00528000  5.79692000  0.27027800  1
  Mo  Mo10  1  1.99990000  4.03968000  2.03090000  1
  Mo  Mo11  1  -0.03828800  5.80287000  2.00837000  1
  Mo  Mo12  1  4.04927000  4.05222000  0.30323300  1
  Mo  Mo13  1  6.08854000  5.78751000  3.75879000  1
  Mo  Mo14  1  6.10627000  4.04786000  2.03692000  1
  Mo  Mo15  1  4.05294000  5.79739000  2.01295000  1
