# generated using pymatgen
data_Mo
_symmetry_space_group_name_H-M   'P 1'
_cell_length_a   8.44691525
_cell_length_b   6.90275317
_cell_length_c   3.44008279
_cell_angle_alpha   90.00000000
_cell_angle_beta   90.00000000
_cell_angle_gamma   90.00000000
_symmetry_Int_Tables_number   1
_chemical_formula_structural   Mo
_chemical_formula_sum   Mo16
_cell_volume   200.58080767
_cell_formula_units_Z   16
loop_
 _symmetry_equiv_pos_site_id
 _symmetry_equiv_pos_as_xyz
  1  'x, y, z'
loop_
 _atom_site_type_symbol
 _atom_site_label
 _atom_site_symmetry_multiplicity
 _atom_site_fract_x
 _atom_site_fract_y
 _atom_site_fract_z
 _atom_site_occupancy
  Mo  Mo0  1  1.94447000  2.32916000  0.29891700  1
  Mo  Mo1  1  1.95684000  0.60931700  2.02467000  1
  Mo  Mo2  1  -0.17135300  2.31622000  2.02516000  1
  Mo  Mo3  1  4.05294000  7.49585000  3.74762000  1
  Mo  Mo4  1  4.05654000  2.32550000  2.02729000  1
  Mo  Mo5  1  -0.17735900  4.04889000  3.75801000  1
  Mo  Mo6  1  1.93964000  5.78284000  0.29011600  1
  Mo  Mo7  1  1.93135000  4.05462000  2.04047000  1
  Mo  Mo8  1  -0.17809600  5.76677000  2.01477000  1
  Mo  Mo9  1  4.03127000  4.04245000  0.31270400  1
  Mo  Mo10  1  4.04454000  5.76025000  2.01520000  1
  Mo  Mo11  1  8.28485000  7.49361000  3.75260000  1
  Mo  Mo12  1  6.16247000  2.33720000  0.29993100  1
  Mo  Mo13  1  6.17009000  0.60035900  2.02328000  1
  Mo  Mo14  1  6.14806000  5.78319000  0.29024400  1
  Mo  Mo15  1  6.15682000  4.05377000  2.03894000  1
