# generated using pymatgen
data_Mo
_symmetry_space_group_name_H-M   'P 1'
_cell_length_a   8.65506789
_cell_length_b   6.83544564
_cell_length_c   3.41729689
_cell_angle_alpha   90.00000000
_cell_angle_beta   90.00000000
_cell_angle_gamma   90.00000000
_symmetry_Int_Tables_number   1
_chemical_formula_structural   Mo
_chemical_formula_sum   Mo16
_cell_volume   202.17154210
_cell_formula_units_Z   16
loop_
 _symmetry_equiv_pos_site_id
 _symmetry_equiv_pos_as_xyz
  1  'x, y, z'
loop_
 _atom_site_type_symbol
 _atom_site_label
 _atom_site_symmetry_multiplicity
 _atom_site_fract_x
 _atom_site_fract_y
 _atom_site_fract_z
 _atom_site_occupancy
  Mo  Mo0  1  1.89456000  2.33355000  0.32816000  1
  Mo  Mo1  1  1.89140000  0.63853300  2.00811000  1
  Mo  Mo2  1  -0.26776600  2.33580000  2.03598000  1
  Mo  Mo3  1  4.06640000  7.46389000  3.72526000  1
  Mo  Mo4  1  4.05060000  2.34685000  2.03929000  1
  Mo  Mo5  1  -0.29004200  4.04901000  3.72851000  1
  Mo  Mo6  1  1.88693000  5.75768000  0.32135900  1
  Mo  Mo7  1  1.87317000  4.05333000  2.02837000  1
  Mo  Mo8  1  -0.27591700  5.76289000  2.02665000  1
  Mo  Mo9  1  4.04318000  4.05191000  0.30961300  1
  Mo  Mo10  1  4.04052000  5.75525000  2.02488000  1
  Mo  Mo11  1  8.38414000  7.46807000  3.72716000  1
  Mo  Mo12  1  6.22815000  2.33704000  0.32760700  1
  Mo  Mo13  1  6.21462000  0.63385100  2.00746000  1
  Mo  Mo14  1  6.21423000  5.75806000  0.31736400  1
  Mo  Mo15  1  6.19075000  4.05427000  2.02694000  1
