# generated using pymatgen
data_Mo
_symmetry_space_group_name_H-M   'P 1'
_cell_length_a   8.68272448
_cell_length_b   6.84258574
_cell_length_c   3.40677571
_cell_angle_alpha   90.00000000
_cell_angle_beta   90.00000000
_cell_angle_gamma   90.00000000
_symmetry_Int_Tables_number   1
_chemical_formula_structural   Mo
_chemical_formula_sum   Mo16
_cell_volume   202.40433540
_cell_formula_units_Z   16
loop_
 _symmetry_equiv_pos_site_id
 _symmetry_equiv_pos_as_xyz
  1  'x, y, z'
loop_
 _atom_site_type_symbol
 _atom_site_label
 _atom_site_symmetry_multiplicity
 _atom_site_fract_x
 _atom_site_fract_y
 _atom_site_fract_z
 _atom_site_occupancy
  Mo  Mo0  1  1.87046000  2.33121000  0.32685300  1
  Mo  Mo1  1  1.86203000  0.62241800  2.01532000  1
  Mo  Mo2  1  -0.28975300  2.34487000  2.02221000  1
  Mo  Mo3  1  4.04681000  7.47089000  3.72636000  1
  Mo  Mo4  1  4.04403000  2.34895000  2.03543000  1
  Mo  Mo5  1  -0.28885200  4.05207000  3.72631000  1
  Mo  Mo6  1  1.87148000  5.75621000  0.32178500  1
  Mo  Mo7  1  1.90080000  4.04360000  2.03090000  1
  Mo  Mo8  1  -0.28584700  5.76863000  2.01591000  1
  Mo  Mo9  1  4.06228000  4.06134000  0.32255000  1
  Mo  Mo10  1  4.05904000  5.76768000  2.02059000  1
  Mo  Mo11  1  8.38691000  7.47936000  3.72277000  1
  Mo  Mo12  1  6.20982000  2.33320000  0.33456800  1
  Mo  Mo13  1  6.21884000  0.61908400  2.01619000  1
  Mo  Mo14  1  6.22290000  5.76260000  0.32374200  1
  Mo  Mo15  1  6.22632000  4.03788000  2.03177000  1
