# generated using pymatgen
data_Mo
_symmetry_space_group_name_H-M   'P 1'
_cell_length_a   7.31299365
_cell_length_b   7.26394799
_cell_length_c   3.63171649
_cell_angle_alpha   90.00000000
_cell_angle_beta   90.00000000
_cell_angle_gamma   90.00000000
_symmetry_Int_Tables_number   1
_chemical_formula_structural   Mo
_chemical_formula_sum   Mo16
_cell_volume   192.92115804
_cell_formula_units_Z   16
loop_
 _symmetry_equiv_pos_site_id
 _symmetry_equiv_pos_as_xyz
  1  'x, y, z'
loop_
 _atom_site_type_symbol
 _atom_site_label
 _atom_site_symmetry_multiplicity
 _atom_site_fract_x
 _atom_site_fract_y
 _atom_site_fract_z
 _atom_site_occupancy
  Mo  Mo0  1  0.39502100  7.69180000  3.84740000  1
  Mo  Mo1  1  2.22034000  2.23300000  0.20539400  1
  Mo  Mo2  1  2.22261000  0.41577300  2.02321000  1
  Mo  Mo3  1  0.39727300  2.23897000  2.02358000  1
  Mo  Mo4  1  4.05406000  7.68099000  3.84082000  1
  Mo  Mo5  1  5.87822000  2.23593000  0.20928800  1
  Mo  Mo6  1  5.89601000  0.41150700  2.02059000  1
  Mo  Mo7  1  4.05170000  2.23585000  2.02952000  1
  Mo  Mo8  1  7.70344000  4.05065000  0.21402500  1
  Mo  Mo9  1  2.21235000  5.85754000  0.20413700  1
  Mo  Mo10  1  2.21772000  4.05149000  2.03775000  1
  Mo  Mo11  1  0.38630600  5.86268000  2.02104000  1
  Mo  Mo12  1  4.05577000  4.05681000  0.20765000  1
  Mo  Mo13  1  5.87943000  5.86679000  3.83294000  1
  Mo  Mo14  1  5.86761000  4.04262000  2.03426000  1
  Mo  Mo15  1  4.04914000  5.86759000  2.01669000  1
