# generated using pymatgen
data_Mo
_symmetry_space_group_name_H-M   'P 1'
_cell_length_a   7.74967724
_cell_length_b   7.10493517
_cell_length_c   3.55144525
_cell_angle_alpha   90.00000000
_cell_angle_beta   90.00000000
_cell_angle_gamma   90.00000000
_symmetry_Int_Tables_number   1
_chemical_formula_structural   Mo
_chemical_formula_sum   Mo16
_cell_volume   195.54596465
_cell_formula_units_Z   16
loop_
 _symmetry_equiv_pos_site_id
 _symmetry_equiv_pos_as_xyz
  1  'x, y, z'
loop_
 _atom_site_type_symbol
 _atom_site_label
 _atom_site_symmetry_multiplicity
 _atom_site_fract_x
 _atom_site_fract_y
 _atom_site_fract_z
 _atom_site_occupancy
  Mo  Mo0  1  0.17720300  7.59886000  3.79188000  1
  Mo  Mo1  1  2.10800000  2.27741000  0.24916900  1
  Mo  Mo2  1  2.11534000  0.49718600  2.02406000  1
  Mo  Mo3  1  0.17217000  2.27653000  2.02292000  1
  Mo  Mo4  1  4.05408000  7.60206000  3.79972000  1
  Mo  Mo5  1  5.98321000  2.27460000  0.25453000  1
  Mo  Mo6  1  5.98978000  0.50075700  2.02767000  1
  Mo  Mo7  1  4.05184000  2.27533000  2.03106000  1
  Mo  Mo8  1  7.92146000  4.04575000  0.24066700  1
  Mo  Mo9  1  2.10473000  5.82489000  0.25910000  1
  Mo  Mo10  1  2.11588000  4.05003000  2.00783000  1
  Mo  Mo11  1  0.17478800  5.82732000  2.03768000  1
  Mo  Mo12  1  4.04646000  4.04728000  0.24873400  1
  Mo  Mo13  1  5.98375000  5.81899000  3.80833000  1
  Mo  Mo14  1  6.00008000  4.05524000  2.01045000  1
  Mo  Mo15  1  4.05156000  5.82776000  2.03476000  1
