# generated using pymatgen
data_Mo
_symmetry_space_group_name_H-M   'P 1'
_cell_length_a   7.79043439
_cell_length_b   7.09142935
_cell_length_c   3.54492307
_cell_angle_alpha   90.00000000
_cell_angle_beta   90.00000000
_cell_angle_gamma   90.00000000
_symmetry_Int_Tables_number   1
_chemical_formula_structural   Mo
_chemical_formula_sum   Mo16
_cell_volume   195.84039187
_cell_formula_units_Z   16
loop_
 _symmetry_equiv_pos_site_id
 _symmetry_equiv_pos_as_xyz
  1  'x, y, z'
loop_
 _atom_site_type_symbol
 _atom_site_label
 _atom_site_symmetry_multiplicity
 _atom_site_fract_x
 _atom_site_fract_y
 _atom_site_fract_z
 _atom_site_occupancy
  Mo  Mo0  1  0.16004000  7.59231000  3.79898000  1
  Mo  Mo1  1  2.11044000  2.27861000  0.24377900  1
  Mo  Mo2  1  2.09097000  0.50762800  2.03302000  1
  Mo  Mo3  1  0.15325600  2.27400000  2.01750000  1
  Mo  Mo4  1  4.04936000  7.59311000  3.80623000  1
  Mo  Mo5  1  5.99393000  2.27945000  0.24496800  1
  Mo  Mo6  1  5.97873000  0.50760600  2.03496000  1
  Mo  Mo7  1  4.04925000  2.26646000  2.02067000  1
  Mo  Mo8  1  7.94896000  4.04900000  0.25903300  1
  Mo  Mo9  1  2.10610000  5.83172000  0.23698600  1
  Mo  Mo10  1  2.10311000  4.05247000  2.03243000  1
  Mo  Mo11  1  0.16009200  5.81264000  2.00937000  1
  Mo  Mo12  1  4.04891000  4.05083000  0.26648400  1
  Mo  Mo13  1  6.00266000  5.83359000  3.79106000  1
  Mo  Mo14  1  5.99935000  4.04849000  2.03520000  1
  Mo  Mo15  1  4.05441000  5.82209000  2.02441000  1
