# generated using pymatgen
data_Mo
_symmetry_space_group_name_H-M   'P 1'
_cell_length_a   7.84865896
_cell_length_b   7.07209623
_cell_length_c   3.53595710
_cell_angle_alpha   90.00000000
_cell_angle_beta   90.00000000
_cell_angle_gamma   90.00000000
_symmetry_Int_Tables_number   1
_chemical_formula_structural   Mo
_chemical_formula_sum   Mo16
_cell_volume   196.26850174
_cell_formula_units_Z   16
loop_
 _symmetry_equiv_pos_site_id
 _symmetry_equiv_pos_as_xyz
  1  'x, y, z'
loop_
 _atom_site_type_symbol
 _atom_site_label
 _atom_site_symmetry_multiplicity
 _atom_site_fract_x
 _atom_site_fract_y
 _atom_site_fract_z
 _atom_site_occupancy
  Mo  Mo0  1  0.12744900  7.58060000  3.81122000  1
  Mo  Mo1  1  2.08942000  2.27981000  0.24931200  1
  Mo  Mo2  1  2.08997000  0.52310000  2.03067000  1
  Mo  Mo3  1  0.12502400  2.27019000  2.02663000  1
  Mo  Mo4  1  4.05831000  7.58257000  3.79963000  1
  Mo  Mo5  1  6.02686000  2.28817000  0.24237700  1
  Mo  Mo6  1  6.01427000  0.51466200  2.02535000  1
  Mo  Mo7  1  4.05265000  2.28465000  2.01513000  1
  Mo  Mo8  1  7.96992000  4.05074000  0.25581200  1
  Mo  Mo9  1  2.09321000  5.82186000  0.25820100  1
  Mo  Mo10  1  2.07639000  4.05315000  2.02771000  1
  Mo  Mo11  1  0.12132300  5.82171000  2.03054000  1
  Mo  Mo12  1  4.04502000  4.04380000  0.24407500  1
  Mo  Mo13  1  6.01215000  5.82277000  3.79448000  1
  Mo  Mo14  1  6.00471000  4.05429000  2.02322000  1
  Mo  Mo15  1  4.04467000  5.80792000  2.02968000  1
