# generated using pymatgen
data_Mo
_symmetry_space_group_name_H-M   'P 1'
_cell_length_a   8.72930396
_cell_length_b   6.84140927
_cell_length_c   3.39611888
_cell_angle_alpha   90.00000000
_cell_angle_beta   90.00000000
_cell_angle_gamma   90.00000000
_symmetry_Int_Tables_number   1
_chemical_formula_structural   Mo
_chemical_formula_sum   Mo16
_cell_volume   202.81873590
_cell_formula_units_Z   16
loop_
 _symmetry_equiv_pos_site_id
 _symmetry_equiv_pos_as_xyz
  1  'x, y, z'
loop_
 _atom_site_type_symbol
 _atom_site_label
 _atom_site_symmetry_multiplicity
 _atom_site_fract_x
 _atom_site_fract_y
 _atom_site_fract_z
 _atom_site_occupancy
  Mo  Mo0  1  1.86047000  2.35044000  0.31266800  1
  Mo  Mo1  1  1.87012000  0.63330100  2.02881000  1
  Mo  Mo2  1  -0.31273100  2.33029000  2.02054000  1
  Mo  Mo3  1  4.03620000  7.46825000  3.74131000  1
  Mo  Mo4  1  4.03901000  2.32511000  2.01937000  1
  Mo  Mo5  1  -0.30642600  4.04262000  3.71479000  1
  Mo  Mo6  1  1.86855000  5.77118000  0.32141100  1
  Mo  Mo7  1  1.88227000  4.05521000  2.02674000  1
  Mo  Mo8  1  -0.30548600  5.75294000  2.02370000  1
  Mo  Mo9  1  4.06753000  4.04392000  0.32505200  1
  Mo  Mo10  1  4.04643000  5.75624000  2.03289000  1
  Mo  Mo11  1  8.39214000  7.46474000  3.73423000  1
  Mo  Mo12  1  6.22362000  2.34760000  0.31327200  1
  Mo  Mo13  1  6.22883000  0.63435000  2.03045000  1
  Mo  Mo14  1  6.23985000  5.76764000  0.32952400  1
  Mo  Mo15  1  6.24031000  4.05617000  2.02913000  1
