# generated using pymatgen
data_Mo
_symmetry_space_group_name_H-M   'P 1'
_cell_length_a   7.99276423
_cell_length_b   7.02793151
_cell_length_c   3.51344681
_cell_angle_alpha   90.00000000
_cell_angle_beta   90.00000000
_cell_angle_gamma   90.00000000
_symmetry_Int_Tables_number   1
_chemical_formula_structural   Mo
_chemical_formula_sum   Mo16
_cell_volume   197.35944085
_cell_formula_units_Z   16
loop_
 _symmetry_equiv_pos_site_id
 _symmetry_equiv_pos_as_xyz
  1  'x, y, z'
loop_
 _atom_site_type_symbol
 _atom_site_label
 _atom_site_symmetry_multiplicity
 _atom_site_fract_x
 _atom_site_fract_y
 _atom_site_fract_z
 _atom_site_occupancy
  Mo  Mo0  1  0.03899410  7.56478000  3.78986000  1
  Mo  Mo1  1  2.04895000  2.30904000  0.25873000  1
  Mo  Mo2  1  2.05300000  0.53079300  2.03820000  1
  Mo  Mo3  1  0.05218980  2.29620000  2.01381000  1
  Mo  Mo4  1  4.04166000  7.56148000  3.78982000  1
  Mo  Mo5  1  6.04287000  2.29862000  0.25907700  1
  Mo  Mo6  1  6.04949000  0.54192700  2.03919000  1
  Mo  Mo7  1  4.04027000  2.27941000  2.01196000  1
  Mo  Mo8  1  8.04987000  4.04416000  0.27682100  1
  Mo  Mo9  1  2.04844000  5.80975000  0.26855900  1
  Mo  Mo10  1  2.05902000  4.05277000  2.02262000  1
  Mo  Mo11  1  0.05499740  5.79424000  2.02892000  1
  Mo  Mo12  1  4.06701000  4.04918000  0.27695400  1
  Mo  Mo13  1  6.06098000  5.80732000  3.77432000  1
  Mo  Mo14  1  6.05230000  4.05378000  2.02244000  1
  Mo  Mo15  1  4.04720000  5.80654000  2.01527000  1
