# generated using pymatgen
data_Mo
_symmetry_space_group_name_H-M   'P 1'
_cell_length_a   7.78752348
_cell_length_b   7.09079474
_cell_length_c   3.54609084
_cell_angle_alpha   90.00000000
_cell_angle_beta   90.00000000
_cell_angle_gamma   90.00000000
_symmetry_Int_Tables_number   1
_chemical_formula_structural   Mo
_chemical_formula_sum   Mo16
_cell_volume   195.81418070
_cell_formula_units_Z   16
loop_
 _symmetry_equiv_pos_site_id
 _symmetry_equiv_pos_as_xyz
  1  'x, y, z'
loop_
 _atom_site_type_symbol
 _atom_site_label
 _atom_site_symmetry_multiplicity
 _atom_site_fract_x
 _atom_site_fract_y
 _atom_site_fract_z
 _atom_site_occupancy
  Mo  Mo0  1  0.16773800  7.59816000  3.80564000  1
  Mo  Mo1  1  2.11557000  2.27352000  0.24562700  1
  Mo  Mo2  1  2.09748000  0.50425000  2.02896000  1
  Mo  Mo3  1  0.15785400  2.27863000  2.01425000  1
  Mo  Mo4  1  4.04727000  7.59424000  3.80764000  1
  Mo  Mo5  1  5.99064000  2.27687000  0.24869700  1
  Mo  Mo6  1  5.98821000  0.50161200  2.02901000  1
  Mo  Mo7  1  4.05220000  2.27094000  2.02069000  1
  Mo  Mo8  1  7.94508000  4.05074000  0.25102100  1
  Mo  Mo9  1  2.10612000  5.82372000  0.24842700  1
  Mo  Mo10  1  2.10411000  4.05049000  2.02975000  1
  Mo  Mo11  1  0.15761700  5.81855000  2.01415000  1
  Mo  Mo12  1  4.04108000  4.05451000  0.25314500  1
  Mo  Mo13  1  5.99579000  5.83199000  3.80115000  1
  Mo  Mo14  1  5.99173000  4.04138000  2.02997000  1
  Mo  Mo15  1  4.05398000  5.83040000  2.02580000  1
