# generated using pymatgen
data_Mo
_symmetry_space_group_name_H-M   'P 1'
_cell_length_a   7.61139429
_cell_length_b   7.15000373
_cell_length_c   3.57568479
_cell_angle_alpha   90.00000000
_cell_angle_beta   90.00000000
_cell_angle_gamma   90.00000000
_symmetry_Int_Tables_number   1
_chemical_formula_structural   Mo
_chemical_formula_sum   Mo16
_cell_volume   194.59412080
_cell_formula_units_Z   16
loop_
 _symmetry_equiv_pos_site_id
 _symmetry_equiv_pos_as_xyz
  1  'x, y, z'
loop_
 _atom_site_type_symbol
 _atom_site_label
 _atom_site_symmetry_multiplicity
 _atom_site_fract_x
 _atom_site_fract_y
 _atom_site_fract_z
 _atom_site_occupancy
  Mo  Mo0  1  0.24401100  7.62464000  3.82051000  1
  Mo  Mo1  1  2.14170000  2.26556000  0.23065700  1
  Mo  Mo2  1  2.14252000  0.47610400  2.02694000  1
  Mo  Mo3  1  0.23704400  2.26139000  2.01325000  1
  Mo  Mo4  1  4.04314000  7.62459000  3.82192000  1
  Mo  Mo5  1  5.94006000  2.26971000  0.23674600  1
  Mo  Mo6  1  5.94733000  0.47222600  2.02736000  1
  Mo  Mo7  1  4.05189000  2.25719000  2.02277000  1
  Mo  Mo8  1  7.86797000  4.04794000  0.24685900  1
  Mo  Mo9  1  2.14378000  5.83997000  0.22848700  1
  Mo  Mo10  1  2.15249000  4.05330000  2.03525000  1
  Mo  Mo11  1  0.24559100  5.83212000  2.01063000  1
  Mo  Mo12  1  4.05449000  4.04707000  0.24864300  1
  Mo  Mo13  1  5.95103000  5.84253000  3.80582000  1
  Mo  Mo14  1  5.96767000  4.04811000  2.03499000  1
  Mo  Mo15  1  4.05789000  5.83755000  2.01348000  1
