# generated using pymatgen
data_Mo
_symmetry_space_group_name_H-M   'P 1'
_cell_length_a   8.47602731
_cell_length_b   6.87354225
_cell_length_c   3.44623566
_cell_angle_alpha   90.00000000
_cell_angle_beta   90.00000000
_cell_angle_gamma   90.00000000
_symmetry_Int_Tables_number   1
_chemical_formula_structural   Mo
_chemical_formula_sum   Mo16
_cell_volume   200.77883289
_cell_formula_units_Z   16
loop_
 _symmetry_equiv_pos_site_id
 _symmetry_equiv_pos_as_xyz
  1  'x, y, z'
loop_
 _atom_site_type_symbol
 _atom_site_label
 _atom_site_symmetry_multiplicity
 _atom_site_fract_x
 _atom_site_fract_y
 _atom_site_fract_z
 _atom_site_occupancy
  Mo  Mo0  1  1.92966000  2.33706000  0.30811700  1
  Mo  Mo1  1  1.93539000  0.62378900  2.01535000  1
  Mo  Mo2  1  -0.18781500  2.32717000  2.02807000  1
  Mo  Mo3  1  4.03801000  7.47669000  3.74196000  1
  Mo  Mo4  1  4.05253000  2.33352000  2.04065000  1
  Mo  Mo5  1  -0.17622200  4.03935000  3.75036000  1
  Mo  Mo6  1  1.93604000  5.77297000  0.30054900  1
  Mo  Mo7  1  1.93506000  4.05681000  2.01804000  1
  Mo  Mo8  1  -0.18851700  5.76224000  2.02502000  1
  Mo  Mo9  1  4.04915000  4.04601000  0.31358100  1
  Mo  Mo10  1  4.05249000  5.75635000  2.02702000  1
  Mo  Mo11  1  8.28739000  7.47851000  3.73283000  1
  Mo  Mo12  1  6.15947000  2.33645000  0.31488500  1
  Mo  Mo13  1  6.17637000  0.62262700  2.01779000  1
  Mo  Mo14  1  6.16116000  5.77088000  0.29998400  1
  Mo  Mo15  1  6.16380000  4.05957000  2.01957000  1
