# generated using pymatgen
data_Mo
_symmetry_space_group_name_H-M   'P 1'
_cell_length_a   8.46001630
_cell_length_b   6.89218467
_cell_length_c   3.44149327
_cell_angle_alpha   90.00000000
_cell_angle_beta   90.00000000
_cell_angle_gamma   90.00000000
_symmetry_Int_Tables_number   1
_chemical_formula_structural   Mo
_chemical_formula_sum   Mo16
_cell_volume   200.66657137
_cell_formula_units_Z   16
loop_
 _symmetry_equiv_pos_site_id
 _symmetry_equiv_pos_as_xyz
  1  'x, y, z'
loop_
 _atom_site_type_symbol
 _atom_site_label
 _atom_site_symmetry_multiplicity
 _atom_site_fract_x
 _atom_site_fract_y
 _atom_site_fract_z
 _atom_site_occupancy
  Mo  Mo0  1  1.93062000  2.32387000  0.31082200  1
  Mo  Mo1  1  1.92200000  0.59222800  2.02450000  1
  Mo  Mo2  1  -0.17789200  2.33248000  2.02779000  1
  Mo  Mo3  1  4.05751000  7.50306000  3.74370000  1
  Mo  Mo4  1  4.04813000  2.32659000  2.01643000  1
  Mo  Mo5  1  -0.18221800  4.05351000  3.73903000  1
  Mo  Mo6  1  1.93069000  5.77019000  0.31816500  1
  Mo  Mo7  1  1.93163000  4.04261000  2.01405000  1
  Mo  Mo8  1  -0.17618200  5.78245000  2.03552000  1
  Mo  Mo9  1  4.06235000  4.05382000  0.29501700  1
  Mo  Mo10  1  4.05164000  5.78562000  2.02698000  1
  Mo  Mo11  1  8.27546000  7.50132000  3.74673000  1
  Mo  Mo12  1  6.17053000  2.31695000  0.30601800  1
  Mo  Mo13  1  6.15581000  0.60128800  2.02459000  1
  Mo  Mo14  1  6.17459000  5.76692000  0.31500300  1
  Mo  Mo15  1  6.16533000  4.04708000  2.01417000  1
