# generated using pymatgen
data_Mo
_symmetry_space_group_name_H-M   'P 1'
_cell_length_a   8.24167450
_cell_length_b   6.95233864
_cell_length_c   3.47626185
_cell_angle_alpha   90.00000000
_cell_angle_beta   90.00000000
_cell_angle_gamma   90.00000000
_symmetry_Int_Tables_number   1
_chemical_formula_structural   Mo
_chemical_formula_sum   Mo16
_cell_volume   199.18602219
_cell_formula_units_Z   16
loop_
 _symmetry_equiv_pos_site_id
 _symmetry_equiv_pos_as_xyz
  1  'x, y, z'
loop_
 _atom_site_type_symbol
 _atom_site_label
 _atom_site_symmetry_multiplicity
 _atom_site_fract_x
 _atom_site_fract_y
 _atom_site_fract_z
 _atom_site_occupancy
  Mo  Mo0  1  1.98289000  2.30044000  0.27971200  1
  Mo  Mo1  1  1.98319000  0.57239300  2.02773000  1
  Mo  Mo2  1  -0.08115000  2.31427000  2.01352000  1
  Mo  Mo3  1  4.05176000  7.53620000  3.77487000  1
  Mo  Mo4  1  4.04895000  2.32448000  2.02205000  1
  Mo  Mo5  1  -0.07166740  4.06089000  3.75884000  1
  Mo  Mo6  1  1.99091000  5.78290000  0.28195200  1
  Mo  Mo7  1  1.99311000  4.04143000  2.03399000  1
  Mo  Mo8  1  -0.07334080  5.79584000  2.01227000  1
  Mo  Mo9  1  4.05003000  4.05577000  0.28851100  1
  Mo  Mo10  1  4.05204000  5.78835000  2.02374000  1
  Mo  Mo11  1  8.16608000  7.52899000  3.76877000  1
  Mo  Mo12  1  6.11651000  2.30766000  0.28434600  1
  Mo  Mo13  1  6.10740000  0.56505200  2.02907000  1
  Mo  Mo14  1  6.11241000  5.78340000  0.28851300  1
  Mo  Mo15  1  6.12919000  4.04193000  2.03585000  1
