# generated using pymatgen
data_Mo
_symmetry_space_group_name_H-M   'P 1'
_cell_length_a   8.40179124
_cell_length_b   6.90992963
_cell_length_c   3.44959426
_cell_angle_alpha   90.00000000
_cell_angle_beta   90.00000000
_cell_angle_gamma   90.00000000
_symmetry_Int_Tables_number   1
_chemical_formula_structural   Mo
_chemical_formula_sum   Mo16
_cell_volume   200.26890712
_cell_formula_units_Z   16
loop_
 _symmetry_equiv_pos_site_id
 _symmetry_equiv_pos_as_xyz
  1  'x, y, z'
loop_
 _atom_site_type_symbol
 _atom_site_label
 _atom_site_symmetry_multiplicity
 _atom_site_fract_x
 _atom_site_fract_y
 _atom_site_fract_z
 _atom_site_occupancy
  Mo  Mo0  1  1.95434000  2.32241000  0.28750400  1
  Mo  Mo1  1  1.94531000  0.58684300  2.03201000  1
  Mo  Mo2  1  -0.14186800  2.32611000  2.00433000  1
  Mo  Mo3  1  4.05145000  7.50783000  3.76847000  1
  Mo  Mo4  1  4.04282000  2.32371000  2.01640000  1
  Mo  Mo5  1  -0.14858200  4.05040000  3.74755000  1
  Mo  Mo6  1  1.95283000  5.77283000  0.30297700  1
  Mo  Mo7  1  1.95157000  4.04539000  2.02705000  1
  Mo  Mo8  1  -0.14401200  5.78067000  2.01972000  1
  Mo  Mo9  1  4.05741000  4.05758000  0.30350800  1
  Mo  Mo10  1  4.04683000  5.78595000  2.01939000  1
  Mo  Mo11  1  8.25093000  7.51572000  3.76316000  1
  Mo  Mo12  1  6.14889000  2.31944000  0.29272000  1
  Mo  Mo13  1  6.14398000  0.58837300  2.03607000  1
  Mo  Mo14  1  6.15350000  5.77383000  0.29995900  1
  Mo  Mo15  1  6.13279000  4.04292000  2.02958000  1
