# generated using pymatgen
data_Mo
_symmetry_space_group_name_H-M   'P 1'
_cell_length_a   7.93162922
_cell_length_b   7.04610938
_cell_length_c   3.52309394
_cell_angle_alpha   90.00000000
_cell_angle_beta   90.00000000
_cell_angle_gamma   90.00000000
_symmetry_Int_Tables_number   1
_chemical_formula_structural   Mo
_chemical_formula_sum   Mo16
_cell_volume   196.89559846
_cell_formula_units_Z   16
loop_
 _symmetry_equiv_pos_site_id
 _symmetry_equiv_pos_as_xyz
  1  'x, y, z'
loop_
 _atom_site_type_symbol
 _atom_site_label
 _atom_site_symmetry_multiplicity
 _atom_site_fract_x
 _atom_site_fract_y
 _atom_site_fract_z
 _atom_site_occupancy
  Mo  Mo0  1  0.08898700  7.57585000  3.77326000  1
  Mo  Mo1  1  2.06676000  2.28031000  0.27699700  1
  Mo  Mo2  1  2.07417000  0.52227900  2.01581000  1
  Mo  Mo3  1  0.08766600  2.28811000  2.03919000  1
  Mo  Mo4  1  4.06390000  7.58192000  3.77177000  1
  Mo  Mo5  1  6.04718000  2.28190000  0.27323200  1
  Mo  Mo6  1  6.03949000  0.52159400  2.01600000  1
  Mo  Mo7  1  4.05961000  2.29874000  2.03356000  1
  Mo  Mo8  1  8.01128000  4.05632000  0.25618800  1
  Mo  Mo9  1  2.06515000  5.80467000  0.27036000  1
  Mo  Mo10  1  2.04194000  4.04414000  2.02177000  1
  Mo  Mo11  1  0.07878930  5.82716000  2.03266000  1
  Mo  Mo12  1  4.04736000  4.05069000  0.25490800  1
  Mo  Mo13  1  6.03151000  5.79784000  3.79047000  1
  Mo  Mo14  1  6.01936000  4.05240000  2.02229000  1
  Mo  Mo15  1  4.04520000  5.81607000  2.02845000  1
