# generated using pymatgen
data_Mo
_symmetry_space_group_name_H-M   'P 1'
_cell_length_a   8.14560369
_cell_length_b   6.98152494
_cell_length_c   3.49048352
_cell_angle_alpha   90.00000000
_cell_angle_beta   90.00000000
_cell_angle_gamma   90.00000000
_symmetry_Int_Tables_number   1
_chemical_formula_structural   Mo
_chemical_formula_sum   Mo16
_cell_volume   198.49938359
_cell_formula_units_Z   16
loop_
 _symmetry_equiv_pos_site_id
 _symmetry_equiv_pos_as_xyz
  1  'x, y, z'
loop_
 _atom_site_type_symbol
 _atom_site_label
 _atom_site_symmetry_multiplicity
 _atom_site_fract_x
 _atom_site_fract_y
 _atom_site_fract_z
 _atom_site_occupancy
  Mo  Mo0  1  -0.02793460  7.54073000  3.77547000  1
  Mo  Mo1  1  2.01376000  2.31169000  0.27459400  1
  Mo  Mo2  1  2.00784000  0.55654600  2.03513000  1
  Mo  Mo3  1  -0.02395880  2.30523000  2.01889000  1
  Mo  Mo4  1  4.04314000  7.53748000  3.77117000  1
  Mo  Mo5  1  6.08375000  2.30286000  0.27358400  1
  Mo  Mo6  1  6.08853000  0.56604300  2.03489000  1
  Mo  Mo7  1  4.05315000  2.28948000  2.01578000  1
  Mo  Mo8  1  8.12504000  4.04666000  0.29217300  1
  Mo  Mo9  1  2.00999000  5.79982000  0.27794400  1
  Mo  Mo10  1  2.00826000  4.05330000  2.02703000  1
  Mo  Mo11  1  -0.02438990  5.78794000  2.02767000  1
  Mo  Mo12  1  4.05784000  4.04918000  0.28810300  1
  Mo  Mo13  1  6.09689000  5.79966000  3.75923000  1
  Mo  Mo14  1  6.08615000  4.05250000  2.02557000  1
  Mo  Mo15  1  4.05632000  5.80087000  2.01228000  1
