# generated using pymatgen
data_Mo
_symmetry_space_group_name_H-M   'P 1'
_cell_length_a   8.56190895
_cell_length_b   6.85233420
_cell_length_c   3.43297935
_cell_angle_alpha   90.00000000
_cell_angle_beta   90.00000000
_cell_angle_gamma   90.00000000
_symmetry_Int_Tables_number   1
_chemical_formula_structural   Mo
_chemical_formula_sum   Mo16
_cell_volume   201.40967632
_cell_formula_units_Z   16
loop_
 _symmetry_equiv_pos_site_id
 _symmetry_equiv_pos_as_xyz
  1  'x, y, z'
loop_
 _atom_site_type_symbol
 _atom_site_label
 _atom_site_symmetry_multiplicity
 _atom_site_fract_x
 _atom_site_fract_y
 _atom_site_fract_z
 _atom_site_occupancy
  Mo  Mo0  1  1.90543000  2.34221000  0.30873800  1
  Mo  Mo1  1  1.91580000  0.62542600  2.01811000  1
  Mo  Mo2  1  -0.23271500  2.34039000  2.02435000  1
  Mo  Mo3  1  4.06312000  7.47381000  3.75006000  1
  Mo  Mo4  1  4.05896000  2.33382000  2.02792000  1
  Mo  Mo5  1  -0.24204000  4.04728000  3.73956000  1
  Mo  Mo6  1  1.89772000  5.77127000  0.30519800  1
  Mo  Mo7  1  1.90043000  4.05018000  2.02975000  1
  Mo  Mo8  1  -0.23663200  5.75845000  2.01827000  1
  Mo  Mo9  1  4.03876000  4.04307000  0.31541700  1
  Mo  Mo10  1  4.05307000  5.76169000  2.02126000  1
  Mo  Mo11  1  8.34249000  7.46621000  3.74098000  1
  Mo  Mo12  1  6.19083000  2.33752000  0.30936100  1
  Mo  Mo13  1  6.19993000  0.62982700  2.02066000  1
  Mo  Mo14  1  6.18351000  5.76685000  0.30581400  1
  Mo  Mo15  1  6.19943000  4.05201000  2.03158000  1
