# generated using pymatgen
data_Mo
_symmetry_space_group_name_H-M   'P 1'
_cell_length_a   7.99422065
_cell_length_b   7.02771693
_cell_length_c   3.51306748
_cell_angle_alpha   90.00000000
_cell_angle_beta   90.00000000
_cell_angle_gamma   90.00000000
_symmetry_Int_Tables_number   1
_chemical_formula_structural   Mo
_chemical_formula_sum   Mo16
_cell_volume   197.36806527
_cell_formula_units_Z   16
loop_
 _symmetry_equiv_pos_site_id
 _symmetry_equiv_pos_as_xyz
  1  'x, y, z'
loop_
 _atom_site_type_symbol
 _atom_site_label
 _atom_site_symmetry_multiplicity
 _atom_site_fract_x
 _atom_site_fract_y
 _atom_site_fract_z
 _atom_site_occupancy
  Mo  Mo0  1  0.04167540  7.56321000  3.79304000  1
  Mo  Mo1  1  2.04894000  2.31067000  0.25977300  1
  Mo  Mo2  1  2.05636000  0.53278800  2.03629000  1
  Mo  Mo3  1  0.05376660  2.29409000  2.01516000  1
  Mo  Mo4  1  4.04269000  7.55880000  3.79077000  1
  Mo  Mo5  1  6.04098000  2.30127000  0.25830700  1
  Mo  Mo6  1  6.05201000  0.54293500  2.03653000  1
  Mo  Mo7  1  4.04138000  2.27938000  2.01064000  1
  Mo  Mo8  1  8.05016000  4.04238000  0.28107900  1
  Mo  Mo9  1  2.04723000  5.81158000  0.26653500  1
  Mo  Mo10  1  2.05954000  4.05342000  2.02516000  1
  Mo  Mo11  1  0.05456290  5.79366000  2.02616000  1
  Mo  Mo12  1  4.06343000  4.04742000  0.27906000  1
  Mo  Mo13  1  6.05620000  5.80921000  3.77169000  1
  Mo  Mo14  1  6.05048000  4.05492000  2.02446000  1
  Mo  Mo15  1  4.04638000  5.80428000  2.01228000  1
