# generated using pymatgen
data_Mo
_symmetry_space_group_name_H-M   'P 1'
_cell_length_a   8.41925867
_cell_length_b   6.89547873
_cell_length_c   3.45165133
_cell_angle_alpha   90.00000000
_cell_angle_beta   90.00000000
_cell_angle_gamma   90.00000000
_symmetry_Int_Tables_number   1
_chemical_formula_structural   Mo
_chemical_formula_sum   Mo16
_cell_volume   200.38499362
_cell_formula_units_Z   16
loop_
 _symmetry_equiv_pos_site_id
 _symmetry_equiv_pos_as_xyz
  1  'x, y, z'
loop_
 _atom_site_type_symbol
 _atom_site_label
 _atom_site_symmetry_multiplicity
 _atom_site_fract_x
 _atom_site_fract_y
 _atom_site_fract_z
 _atom_site_occupancy
  Mo  Mo0  1  1.94481000  2.33708000  0.30294200  1
  Mo  Mo1  1  1.94811000  0.60529900  2.01674000  1
  Mo  Mo2  1  -0.15927300  2.32230000  2.03324000  1
  Mo  Mo3  1  4.05504000  7.49587000  3.75508000  1
  Mo  Mo4  1  4.05643000  2.32193000  2.02005000  1
  Mo  Mo5  1  -0.16014700  4.04985000  3.76175000  1
  Mo  Mo6  1  1.94306000  5.78494000  0.29260700  1
  Mo  Mo7  1  1.94076000  4.05022000  2.03447000  1
  Mo  Mo8  1  -0.15660500  5.76306000  2.01909000  1
  Mo  Mo9  1  4.04099000  4.04162000  0.30580300  1
  Mo  Mo10  1  4.05287000  5.76011000  2.01117000  1
  Mo  Mo11  1  8.26891000  7.48755000  3.75946000  1
  Mo  Mo12  1  6.15267000  2.33446000  0.29623700  1
  Mo  Mo13  1  6.14571000  0.60967700  2.01587000  1
  Mo  Mo14  1  6.14618000  5.77836000  0.28942400  1
  Mo  Mo15  1  6.16124000  4.05768000  2.03443000  1
