# generated using pymatgen
data_Mo
_symmetry_space_group_name_H-M   'P 1'
_cell_length_a   8.04516650
_cell_length_b   7.01262784
_cell_length_c   3.50521398
_cell_angle_alpha   90.00000000
_cell_angle_beta   90.00000000
_cell_angle_gamma   90.00000000
_symmetry_Int_Tables_number   1
_chemical_formula_structural   Mo
_chemical_formula_sum   Mo16
_cell_volume   197.75631576
_cell_formula_units_Z   16
loop_
 _symmetry_equiv_pos_site_id
 _symmetry_equiv_pos_as_xyz
  1  'x, y, z'
loop_
 _atom_site_type_symbol
 _atom_site_label
 _atom_site_symmetry_multiplicity
 _atom_site_fract_x
 _atom_site_fract_y
 _atom_site_fract_z
 _atom_site_occupancy
  Mo  Mo0  1  0.03438950  7.55421000  3.79036000  1
  Mo  Mo1  1  2.04265000  2.30067000  0.25978200  1
  Mo  Mo2  1  2.04459000  0.55210200  2.02921000  1
  Mo  Mo3  1  0.03083650  2.28493000  2.01850000  1
  Mo  Mo4  1  4.06920000  7.55283000  3.78480000  1
  Mo  Mo5  1  6.07721000  2.30993000  0.26383200  1
  Mo  Mo6  1  6.06660000  0.54322900  2.02736000  1
  Mo  Mo7  1  4.04812000  2.29708000  2.02573000  1
  Mo  Mo8  1  8.05481000  4.04767000  0.28036300  1
  Mo  Mo9  1  2.03636000  5.80671000  0.26172100  1
  Mo  Mo10  1  2.03411000  4.05552000  2.04195000  1
  Mo  Mo11  1  0.02349460  5.79662000  2.01913000  1
  Mo  Mo12  1  4.03914000  4.04617000  0.27484400  1
  Mo  Mo13  1  6.06014000  5.80964000  3.76345000  1
  Mo  Mo14  1  6.05413000  4.05445000  2.03889000  1
  Mo  Mo15  1  4.03907000  5.78824000  2.01487000  1
