# generated using pymatgen
data_Mo
_symmetry_space_group_name_H-M   'P 1'
_cell_length_a   8.23439625
_cell_length_b   6.95463806
_cell_length_c   3.47731042
_cell_angle_alpha   90.00000000
_cell_angle_beta   90.00000000
_cell_angle_gamma   90.00000000
_symmetry_Int_Tables_number   1
_chemical_formula_structural   Mo
_chemical_formula_sum   Mo16
_cell_volume   199.13598975
_cell_formula_units_Z   16
loop_
 _symmetry_equiv_pos_site_id
 _symmetry_equiv_pos_as_xyz
  1  'x, y, z'
loop_
 _atom_site_type_symbol
 _atom_site_label
 _atom_site_symmetry_multiplicity
 _atom_site_fract_x
 _atom_site_fract_y
 _atom_site_fract_z
 _atom_site_occupancy
  Mo  Mo0  1  1.99909000  2.31444000  0.28788200  1
  Mo  Mo1  1  2.00090000  0.57384800  2.02768000  1
  Mo  Mo2  1  -0.05893240  2.30823000  2.03029000  1
  Mo  Mo3  1  4.06276000  7.53095000  3.75756000  1
  Mo  Mo4  1  4.05140000  2.31091000  2.02578000  1
  Mo  Mo5  1  -0.07389810  4.05427000  3.77680000  1
  Mo  Mo6  1  1.99119000  5.78767000  0.27220400  1
  Mo  Mo7  1  1.97628000  4.04996000  2.03151000  1
  Mo  Mo8  1  -0.06296960  5.78350000  2.01575000  1
  Mo  Mo9  1  4.04632000  4.04743000  0.29736000  1
  Mo  Mo10  1  4.03974000  5.78422000  2.02226000  1
  Mo  Mo11  1  8.17158000  7.52579000  3.75944000  1
  Mo  Mo12  1  6.11587000  2.32019000  0.28351900  1
  Mo  Mo13  1  6.09979000  0.57059100  2.02727000  1
  Mo  Mo14  1  6.10973000  5.78732000  0.27550000  1
  Mo  Mo15  1  6.09676000  4.05067000  2.03188000  1
