# generated using pymatgen
data_Mo
_symmetry_space_group_name_H-M   'P 1'
_cell_length_a   7.52114627
_cell_length_b   7.18362761
_cell_length_c   3.59107351
_cell_angle_alpha   90.00000000
_cell_angle_beta   90.00000000
_cell_angle_gamma   90.00000000
_symmetry_Int_Tables_number   1
_chemical_formula_structural   Mo
_chemical_formula_sum   Mo16
_cell_volume   194.02252005
_cell_formula_units_Z   16
loop_
 _symmetry_equiv_pos_site_id
 _symmetry_equiv_pos_as_xyz
  1  'x, y, z'
loop_
 _atom_site_type_symbol
 _atom_site_label
 _atom_site_symmetry_multiplicity
 _atom_site_fract_x
 _atom_site_fract_y
 _atom_site_fract_z
 _atom_site_occupancy
  Mo  Mo0  1  0.28635400  7.64301000  3.82145000  1
  Mo  Mo1  1  2.16867000  2.25162000  0.22776600  1
  Mo  Mo2  1  2.16265000  0.45996700  2.02434000  1
  Mo  Mo3  1  0.28213200  2.25372000  2.02892000  1
  Mo  Mo4  1  4.05054000  7.64628000  3.82110000  1
  Mo  Mo5  1  5.93669000  2.25978000  0.22647300  1
  Mo  Mo6  1  5.92646000  0.45306600  2.02278000  1
  Mo  Mo7  1  4.05591000  2.25919000  2.02753000  1
  Mo  Mo8  1  7.81678000  4.05209000  0.21639600  1
  Mo  Mo9  1  2.17262000  5.83794000  0.23330900  1
  Mo  Mo10  1  2.15530000  4.05149000  2.02000000  1
  Mo  Mo11  1  0.28620400  5.84828000  2.03015000  1
  Mo  Mo12  1  4.05345000  4.04877000  0.21618100  1
  Mo  Mo13  1  5.93765000  5.83916000  3.83153000  1
  Mo  Mo14  1  5.93326000  4.04997000  2.01962000  1
  Mo  Mo15  1  4.05419000  5.84567000  2.04140000  1
