# generated using pymatgen
data_Mo
_symmetry_space_group_name_H-M   'P 1'
_cell_length_a   8.26933109
_cell_length_b   6.94343007
_cell_length_c   3.47238374
_cell_angle_alpha   90.00000000
_cell_angle_beta   90.00000000
_cell_angle_gamma   90.00000000
_symmetry_Int_Tables_number   1
_chemical_formula_structural   Mo
_chemical_formula_sum   Mo16
_cell_volume   199.37567005
_cell_formula_units_Z   16
loop_
 _symmetry_equiv_pos_site_id
 _symmetry_equiv_pos_as_xyz
  1  'x, y, z'
loop_
 _atom_site_type_symbol
 _atom_site_label
 _atom_site_symmetry_multiplicity
 _atom_site_fract_x
 _atom_site_fract_y
 _atom_site_fract_z
 _atom_site_occupancy
  Mo  Mo0  1  1.97762000  2.30646000  0.29845400  1
  Mo  Mo1  1  1.98789000  0.57272000  2.01869000  1
  Mo  Mo2  1  -0.08274110  2.31935000  2.03245000  1
  Mo  Mo3  1  4.06026000  7.52543000  3.75431000  1
  Mo  Mo4  1  4.05947000  2.32747000  2.02601000  1
  Mo  Mo5  1  -0.08691650  4.05353000  3.75865000  1
  Mo  Mo6  1  1.97564000  5.78409000  0.29439900  1
  Mo  Mo7  1  1.96893000  4.03795000  2.02727000  1
  Mo  Mo8  1  -0.09112270  5.79959000  2.02736000  1
  Mo  Mo9  1  4.04742000  4.05619000  0.28578200  1
  Mo  Mo10  1  4.04933000  5.78794000  2.01775000  1
  Mo  Mo11  1  8.19100000  7.52503000  3.75517000  1
  Mo  Mo12  1  6.12213000  2.30388000  0.29618100  1
  Mo  Mo13  1  6.13318000  0.57556300  2.01856000  1
  Mo  Mo14  1  6.10991000  5.77656000  0.28951100  1
  Mo  Mo15  1  6.10867000  4.04826000  2.02707000  1
