# generated using pymatgen
data_Mo
_symmetry_space_group_name_H-M   'P 1'
_cell_length_a   7.69727546
_cell_length_b   7.12149006
_cell_length_c   3.56048703
_cell_angle_alpha   90.00000000
_cell_angle_beta   90.00000000
_cell_angle_gamma   90.00000000
_symmetry_Int_Tables_number   1
_chemical_formula_structural   Mo
_chemical_formula_sum   Mo16
_cell_volume   195.17190882
_cell_formula_units_Z   16
loop_
 _symmetry_equiv_pos_site_id
 _symmetry_equiv_pos_as_xyz
  1  'x, y, z'
loop_
 _atom_site_type_symbol
 _atom_site_label
 _atom_site_symmetry_multiplicity
 _atom_site_fract_x
 _atom_site_fract_y
 _atom_site_fract_z
 _atom_site_occupancy
  Mo  Mo0  1  0.21353400  7.60889000  3.80682000  1
  Mo  Mo1  1  2.13112000  2.26581000  0.24725700  1
  Mo  Mo2  1  2.13576000  0.49779200  2.01592000  1
  Mo  Mo3  1  0.20447400  2.27433000  2.03669000  1
  Mo  Mo4  1  4.04948000  7.60185000  3.79406000  1
  Mo  Mo5  1  5.96448000  2.26986000  0.24984400  1
  Mo  Mo6  1  5.98848000  0.49547900  2.01032000  1
  Mo  Mo7  1  4.05796000  2.26346000  2.03863000  1
  Mo  Mo8  1  7.89646000  4.04620000  0.24360300  1
  Mo  Mo9  1  2.11597000  5.82826000  0.24823500  1
  Mo  Mo10  1  2.12202000  4.05926000  2.03008000  1
  Mo  Mo11  1  0.19503700  5.82089000  2.03652000  1
  Mo  Mo12  1  4.04020000  4.04790000  0.23074200  1
  Mo  Mo13  1  5.96579000  5.83846000  3.80238000  1
  Mo  Mo14  1  5.97022000  4.04889000  2.02335000  1
  Mo  Mo15  1  4.05174000  5.83269000  2.02506000  1
