# generated using pymatgen
data_Mo
_symmetry_space_group_name_H-M   'P 1'
_cell_length_a   8.37704653
_cell_length_b   6.91626024
_cell_length_c   3.45377135
_cell_angle_alpha   90.00000000
_cell_angle_beta   90.00000000
_cell_angle_gamma   90.00000000
_symmetry_Int_Tables_number   1
_chemical_formula_structural   Mo
_chemical_formula_sum   Mo16
_cell_volume   200.10403074
_cell_formula_units_Z   16
loop_
 _symmetry_equiv_pos_site_id
 _symmetry_equiv_pos_as_xyz
  1  'x, y, z'
loop_
 _atom_site_type_symbol
 _atom_site_label
 _atom_site_symmetry_multiplicity
 _atom_site_fract_x
 _atom_site_fract_y
 _atom_site_fract_z
 _atom_site_occupancy
  Mo  Mo0  1  1.96179000  2.31661000  0.28918200  1
  Mo  Mo1  1  1.96926000  0.58234100  2.03347000  1
  Mo  Mo2  1  -0.13169800  2.32003000  2.01575000  1
  Mo  Mo3  1  4.06120000  7.51971000  3.76294000  1
  Mo  Mo4  1  4.05131000  2.32548000  2.01044000  1
  Mo  Mo5  1  -0.14427300  4.06008000  3.75379000  1
  Mo  Mo6  1  1.95659000  5.77848000  0.30071700  1
  Mo  Mo7  1  1.94782000  4.03723000  2.03618000  1
  Mo  Mo8  1  -0.13780500  5.79126000  2.02611000  1
  Mo  Mo9  1  4.04006000  4.05584000  0.29474800  1
  Mo  Mo10  1  4.03985000  5.78146000  2.00825000  1
  Mo  Mo11  1  8.24894000  7.51595000  3.76804000  1
  Mo  Mo12  1  6.14869000  2.31478000  0.28778500  1
  Mo  Mo13  1  6.14376000  0.58386400  2.03312000  1
  Mo  Mo14  1  6.13457000  5.77008000  0.29120700  1
  Mo  Mo15  1  6.13291000  4.04681000  2.03450000  1
