# generated using pymatgen
data_Mo
_symmetry_space_group_name_H-M   'P 1'
_cell_length_a   7.50804570
_cell_length_b   7.18779999
_cell_length_c   3.59399509
_cell_angle_alpha   90.00000000
_cell_angle_beta   90.00000000
_cell_angle_gamma   90.00000000
_symmetry_Int_Tables_number   1
_chemical_formula_structural   Mo
_chemical_formula_sum   Mo16
_cell_volume   193.95472827
_cell_formula_units_Z   16
loop_
 _symmetry_equiv_pos_site_id
 _symmetry_equiv_pos_as_xyz
  1  'x, y, z'
loop_
 _atom_site_type_symbol
 _atom_site_label
 _atom_site_symmetry_multiplicity
 _atom_site_fract_x
 _atom_site_fract_y
 _atom_site_fract_z
 _atom_site_occupancy
  Mo  Mo0  1  0.30914800  7.64718000  3.81790000  1
  Mo  Mo1  1  2.18184000  2.25658000  0.23191300  1
  Mo  Mo2  1  2.18196000  0.45240500  2.02839000  1
  Mo  Mo3  1  0.30386300  2.25400000  2.02856000  1
  Mo  Mo4  1  4.05583000  7.63828000  3.81321000  1
  Mo  Mo5  1  5.92402000  2.24657000  0.22959400  1
  Mo  Mo6  1  5.94168000  0.46240900  2.02737000  1
  Mo  Mo7  1  4.04819000  2.24660000  2.02198000  1
  Mo  Mo8  1  7.78883000  4.04510000  0.24485700  1
  Mo  Mo9  1  2.16604000  5.85323000  0.22199700  1
  Mo  Mo10  1  2.18385000  4.04856000  2.03328000  1
  Mo  Mo11  1  0.29164400  5.84440000  2.02383000  1
  Mo  Mo12  1  4.03425000  4.05438000  0.24006900  1
  Mo  Mo13  1  5.91776000  5.85103000  3.80603000  1
  Mo  Mo14  1  5.91847000  4.05241000  2.03123000  1
  Mo  Mo15  1  4.04460000  5.84687000  2.00579000  1
