# generated using pymatgen
data_Mo
_symmetry_space_group_name_H-M   'P 1'
_cell_length_a   7.84429212
_cell_length_b   7.07311779
_cell_length_c   3.53685665
_cell_angle_alpha   90.00000000
_cell_angle_beta   90.00000000
_cell_angle_gamma   90.00000000
_symmetry_Int_Tables_number   1
_chemical_formula_structural   Mo
_chemical_formula_sum   Mo16
_cell_volume   196.23754733
_cell_formula_units_Z   16
loop_
 _symmetry_equiv_pos_site_id
 _symmetry_equiv_pos_as_xyz
  1  'x, y, z'
loop_
 _atom_site_type_symbol
 _atom_site_label
 _atom_site_symmetry_multiplicity
 _atom_site_fract_x
 _atom_site_fract_y
 _atom_site_fract_z
 _atom_site_occupancy
  Mo  Mo0  1  0.12638600  7.57990000  3.80944000  1
  Mo  Mo1  1  2.09052000  2.28893000  0.25015100  1
  Mo  Mo2  1  2.08814000  0.51782200  2.03325000  1
  Mo  Mo3  1  0.12749600  2.26394000  2.02110000  1
  Mo  Mo4  1  4.04241000  7.58300000  3.80539000  1
  Mo  Mo5  1  6.01230000  2.28998000  0.24149600  1
  Mo  Mo6  1  6.00483000  0.51626200  2.03190000  1
  Mo  Mo7  1  4.05490000  2.27621000  2.00709000  1
  Mo  Mo8  1  7.98604000  4.04620000  0.26786200  1
  Mo  Mo9  1  2.10182000  5.83263000  0.25055800  1
  Mo  Mo10  1  2.07926000  4.05010000  2.02835000  1
  Mo  Mo11  1  0.12942300  5.82221000  2.01981000  1
  Mo  Mo12  1  4.05017000  4.04166000  0.26383100  1
  Mo  Mo13  1  6.00754000  5.82490000  3.78696000  1
  Mo  Mo14  1  6.00242000  4.05881000  2.02796000  1
  Mo  Mo15  1  4.05206000  5.80747000  2.01800000  1
