# generated using pymatgen
data_Mo
_symmetry_space_group_name_H-M   'P 1'
_cell_length_a   8.45855989
_cell_length_b   6.89691854
_cell_length_c   3.43953156
_cell_angle_alpha   90.00000000
_cell_angle_beta   90.00000000
_cell_angle_gamma   90.00000000
_symmetry_Int_Tables_number   1
_chemical_formula_structural   Mo
_chemical_formula_sum   Mo16
_cell_volume   200.65538711
_cell_formula_units_Z   16
loop_
 _symmetry_equiv_pos_site_id
 _symmetry_equiv_pos_as_xyz
  1  'x, y, z'
loop_
 _atom_site_type_symbol
 _atom_site_label
 _atom_site_symmetry_multiplicity
 _atom_site_fract_x
 _atom_site_fract_y
 _atom_site_fract_z
 _atom_site_occupancy
  Mo  Mo0  1  1.93211000  2.32244000  0.31371700  1
  Mo  Mo1  1  1.92643000  0.59332600  2.02291000  1
  Mo  Mo2  1  -0.17526000  2.32910000  2.03049000  1
  Mo  Mo3  1  4.05778000  7.50412000  3.73785000  1
  Mo  Mo4  1  4.04915000  2.32698000  2.02036000  1
  Mo  Mo5  1  -0.18183100  4.05185000  3.73985000  1
  Mo  Mo6  1  1.93362000  5.77173000  0.31980200  1
  Mo  Mo7  1  1.92836000  4.04447000  2.01175000  1
  Mo  Mo8  1  -0.17648100  5.78460000  2.03900000  1
  Mo  Mo9  1  4.06069000  4.05173000  0.29664700  1
  Mo  Mo10  1  4.04887000  5.78294000  2.02705000  1
  Mo  Mo11  1  8.27478000  7.50171000  3.74197000  1
  Mo  Mo12  1  6.17309000  2.31673000  0.31056800  1
  Mo  Mo13  1  6.15807000  0.60065400  2.02242000  1
  Mo  Mo14  1  6.17285000  5.76772000  0.31531900  1
  Mo  Mo15  1  6.15921000  4.04988000  2.01077000  1
