# generated using pymatgen
data_Mo
_symmetry_space_group_name_H-M   'P 1'
_cell_length_a   7.55316973
_cell_length_b   7.17140910
_cell_length_c   3.58544278
_cell_angle_alpha   90.00000000
_cell_angle_beta   90.00000000
_cell_angle_gamma   90.00000000
_symmetry_Int_Tables_number   1
_chemical_formula_structural   Mo
_chemical_formula_sum   Mo16
_cell_volume   194.21221346
_cell_formula_units_Z   16
loop_
 _symmetry_equiv_pos_site_id
 _symmetry_equiv_pos_as_xyz
  1  'x, y, z'
loop_
 _atom_site_type_symbol
 _atom_site_label
 _atom_site_symmetry_multiplicity
 _atom_site_fract_x
 _atom_site_fract_y
 _atom_site_fract_z
 _atom_site_occupancy
  Mo  Mo0  1  0.29029600  7.64939000  3.82072000  1
  Mo  Mo1  1  2.16555000  2.26131000  0.23390700  1
  Mo  Mo2  1  2.15476000  0.44860300  2.03483000  1
  Mo  Mo3  1  0.27640500  2.26472000  2.02002000  1
  Mo  Mo4  1  4.06079000  7.64040000  3.81852000  1
  Mo  Mo5  1  5.94031000  2.25065000  0.22792200  1
  Mo  Mo6  1  5.95143000  0.45902100  2.03431000  1
  Mo  Mo7  1  4.05349000  2.25838000  2.00915000  1
  Mo  Mo8  1  7.81772000  4.05098000  0.24410000  1
  Mo  Mo9  1  2.15258000  5.83640000  0.23062200  1
  Mo  Mo10  1  2.16041000  4.04018000  2.02809000  1
  Mo  Mo11  1  0.26454600  5.84803000  2.01947000  1
  Mo  Mo12  1  4.04421000  4.06179000  0.24211500  1
  Mo  Mo13  1  5.93519000  5.83546000  3.81188000  1
  Mo  Mo14  1  5.92684000  4.04384000  2.02775000  1
  Mo  Mo15  1  4.05231000  5.85085000  2.01115000  1
