# generated using pymatgen
data_Mo
_symmetry_space_group_name_H-M   'P 1'
_cell_length_a   7.78897893
_cell_length_b   7.09133393
_cell_length_c   3.54544926
_cell_angle_alpha   90.00000000
_cell_angle_beta   90.00000000
_cell_angle_gamma   90.00000000
_symmetry_Int_Tables_number   1
_chemical_formula_structural   Mo
_chemical_formula_sum   Mo16
_cell_volume   195.83023262
_cell_formula_units_Z   16
loop_
 _symmetry_equiv_pos_site_id
 _symmetry_equiv_pos_as_xyz
  1  'x, y, z'
loop_
 _atom_site_type_symbol
 _atom_site_label
 _atom_site_symmetry_multiplicity
 _atom_site_fract_x
 _atom_site_fract_y
 _atom_site_fract_z
 _atom_site_occupancy
  Mo  Mo0  1  0.16468400  7.59523000  3.80273000  1
  Mo  Mo1  1  2.11348000  2.27591000  0.24426100  1
  Mo  Mo2  1  2.09364000  0.50595700  2.03144000  1
  Mo  Mo3  1  0.15565800  2.27617000  2.01536000  1
  Mo  Mo4  1  4.04859000  7.59378000  3.80737000  1
  Mo  Mo5  1  5.99195000  2.27832000  0.24648100  1
  Mo  Mo6  1  5.98226000  0.50440900  2.03234000  1
  Mo  Mo7  1  4.05094000  2.26812000  2.02032000  1
  Mo  Mo8  1  7.94713000  4.04998000  0.25539100  1
  Mo  Mo9  1  2.10614000  5.82805000  0.24214100  1
  Mo  Mo10  1  2.10348000  4.05163000  2.03160000  1
  Mo  Mo11  1  0.15925500  5.81524000  2.01097000  1
  Mo  Mo12  1  4.04464000  4.05264000  0.26018300  1
  Mo  Mo13  1  5.99911000  5.83349000  3.79592000  1
  Mo  Mo14  1  5.99555000  4.04459000  2.03303000  1
  Mo  Mo15  1  4.05453000  5.82648000  2.02499000  1
