# generated using pymatgen
data_Mo
_symmetry_space_group_name_H-M   'P 1'
_cell_length_a   7.51969081
_cell_length_b   7.18553498
_cell_length_c   3.59079194
_cell_angle_alpha   90.00000000
_cell_angle_beta   90.00000000
_cell_angle_gamma   90.00000000
_symmetry_Int_Tables_number   1
_chemical_formula_structural   Mo
_chemical_formula_sum   Mo16
_cell_volume   194.02126594
_cell_formula_units_Z   16
loop_
 _symmetry_equiv_pos_site_id
 _symmetry_equiv_pos_as_xyz
  1  'x, y, z'
loop_
 _atom_site_type_symbol
 _atom_site_label
 _atom_site_symmetry_multiplicity
 _atom_site_fract_x
 _atom_site_fract_y
 _atom_site_fract_z
 _atom_site_occupancy
  Mo  Mo0  1  0.28914800  7.64126000  3.82191000  1
  Mo  Mo1  1  2.17102000  2.25291000  0.23171900  1
  Mo  Mo2  1  2.16524000  0.46176900  2.01886000  1
  Mo  Mo3  1  0.28453400  2.25388000  2.03346000  1
  Mo  Mo4  1  4.05059000  7.64359000  3.81842000  1
  Mo  Mo5  1  5.93548000  2.26220000  0.22941400  1
  Mo  Mo6  1  5.92929000  0.45449300  2.01596000  1
  Mo  Mo7  1  4.05985000  2.25574000  2.03035000  1
  Mo  Mo8  1  7.81583000  4.04895000  0.21703900  1
  Mo  Mo9  1  2.17071000  5.83874000  0.23498800  1
  Mo  Mo10  1  2.14936000  4.05592000  2.01958000  1
  Mo  Mo11  1  0.28536700  5.84492000  2.03134000  1
  Mo  Mo12  1  4.05251000  4.04502000  0.21361900  1
  Mo  Mo13  1  5.93711000  5.84256000  3.83263000  1
  Mo  Mo14  1  5.92916000  4.05162000  2.01794000  1
  Mo  Mo15  1  4.05512000  5.84643000  2.04199000  1
