# generated using pymatgen
data_Mo
_symmetry_space_group_name_H-M   'P 1'
_cell_length_a   7.99713157
_cell_length_b   7.02596241
_cell_length_c   3.51297450
_cell_angle_alpha   90.00000000
_cell_angle_beta   90.00000000
_cell_angle_gamma   90.00000000
_symmetry_Int_Tables_number   1
_chemical_formula_structural   Mo
_chemical_formula_sum   Mo16
_cell_volume   197.38541565
_cell_formula_units_Z   16
loop_
 _symmetry_equiv_pos_site_id
 _symmetry_equiv_pos_as_xyz
  1  'x, y, z'
loop_
 _atom_site_type_symbol
 _atom_site_label
 _atom_site_symmetry_multiplicity
 _atom_site_fract_x
 _atom_site_fract_y
 _atom_site_fract_z
 _atom_site_occupancy
  Mo  Mo0  1  0.05124790  7.56106000  3.79603000  1
  Mo  Mo1  1  2.04937000  2.30774000  0.26388800  1
  Mo  Mo2  1  2.05825000  0.53850400  2.02939000  1
  Mo  Mo3  1  0.05669770  2.29057000  2.02204000  1
  Mo  Mo4  1  4.04749000  7.55423000  3.78864000  1
  Mo  Mo5  1  6.03888000  2.30368000  0.25943900  1
  Mo  Mo6  1  6.05479000  0.54302600  2.02726000  1
  Mo  Mo7  1  4.04599000  2.28381000  2.01345000  1
  Mo  Mo8  1  8.04989000  4.04125000  0.28362300  1
  Mo  Mo9  1  2.04543000  5.81168000  0.26333200  1
  Mo  Mo10  1  2.05967000  4.05437000  2.03064000  1
  Mo  Mo11  1  0.05379760  5.79638000  2.02179000  1
  Mo  Mo12  1  4.05291000  4.04579000  0.27674700  1
  Mo  Mo13  1  6.04465000  5.81176000  3.77056000  1
  Mo  Mo14  1  6.04644000  4.05484000  2.02843000  1
  Mo  Mo15  1  4.04737000  5.80129000  2.01176000  1
