# generated using pymatgen
data_Mo
_symmetry_space_group_name_H-M   'P 1'
_cell_length_a   8.35084540
_cell_length_b   6.91940558
_cell_length_c   3.45989156
_cell_angle_alpha   90.00000000
_cell_angle_beta   90.00000000
_cell_angle_gamma   90.00000000
_symmetry_Int_Tables_number   1
_chemical_formula_structural   Mo
_chemical_formula_sum   Mo16
_cell_volume   199.92252025
_cell_formula_units_Z   16
loop_
 _symmetry_equiv_pos_site_id
 _symmetry_equiv_pos_as_xyz
  1  'x, y, z'
loop_
 _atom_site_type_symbol
 _atom_site_label
 _atom_site_symmetry_multiplicity
 _atom_site_fract_x
 _atom_site_fract_y
 _atom_site_fract_z
 _atom_site_occupancy
  Mo  Mo0  1  1.96498000  2.31412000  0.28935100  1
  Mo  Mo1  1  1.96367000  0.58215400  2.02696000  1
  Mo  Mo2  1  -0.13031300  2.32179000  2.01914000  1
  Mo  Mo3  1  4.04549000  7.52337000  3.75968000  1
  Mo  Mo4  1  4.04225000  2.32192000  2.02669000  1
  Mo  Mo5  1  -0.12147600  4.06104000  3.75103000  1
  Mo  Mo6  1  1.96997000  5.77764000  0.29140100  1
  Mo  Mo7  1  1.97382000  4.03994000  2.03717000  1
  Mo  Mo8  1  -0.12107000  5.78735000  2.02122000  1
  Mo  Mo9  1  4.04698000  4.05554000  0.29630200  1
  Mo  Mo10  1  4.04716000  5.78528000  2.01634000  1
  Mo  Mo11  1  8.22522000  7.51403000  3.75456000  1
  Mo  Mo12  1  6.13377000  2.31346000  0.29480500  1
  Mo  Mo13  1  6.12276000  0.58394700  2.02883000  1
  Mo  Mo14  1  6.13510000  5.77421000  0.28862800  1
  Mo  Mo15  1  6.15085000  4.04422000  2.03799000  1
