# generated using pymatgen
data_Mo
_symmetry_space_group_name_H-M   'P 1'
_cell_length_a   8.54589699
_cell_length_b   6.84731978
_cell_length_c   3.43991494
_cell_angle_alpha   90.00000000
_cell_angle_beta   90.00000000
_cell_angle_gamma   90.00000000
_symmetry_Int_Tables_number   1
_chemical_formula_structural   Mo
_chemical_formula_sum   Mo16
_cell_volume   201.29174666
_cell_formula_units_Z   16
loop_
 _symmetry_equiv_pos_site_id
 _symmetry_equiv_pos_as_xyz
  1  'x, y, z'
loop_
 _atom_site_type_symbol
 _atom_site_label
 _atom_site_symmetry_multiplicity
 _atom_site_fract_x
 _atom_site_fract_y
 _atom_site_fract_z
 _atom_site_occupancy
  Mo  Mo0  1  1.91112000  2.33510000  0.31360800  1
  Mo  Mo1  1  1.89996000  0.62196900  2.02427000  1
  Mo  Mo2  1  -0.22168200  2.33867000  2.03534000  1
  Mo  Mo3  1  4.04283000  7.47440000  3.73434000  1
  Mo  Mo4  1  4.04378000  2.34176000  2.02723000  1
  Mo  Mo5  1  -0.21052900  4.04812000  3.73789000  1
  Mo  Mo6  1  1.92159000  5.75981000  0.31160800  1
  Mo  Mo7  1  1.91946000  4.04701000  2.01275000  1
  Mo  Mo8  1  -0.21218600  5.77155000  2.03474000  1
  Mo  Mo9  1  4.06405000  4.05106000  0.29988700  1
  Mo  Mo10  1  4.05390000  5.76728000  2.03584000  1
  Mo  Mo11  1  8.31193000  7.47618000  3.73215000  1
  Mo  Mo12  1  6.18420000  2.33262000  0.30780400  1
  Mo  Mo13  1  6.16804000  0.62567300  2.02522000  1
  Mo  Mo14  1  6.19399000  5.75481000  0.31199800  1
  Mo  Mo15  1  6.18366000  4.05398000  2.01540000  1
