# generated using pymatgen
data_Mo
_symmetry_space_group_name_H-M   'P 1'
_cell_length_a   7.45127708
_cell_length_b   7.20702606
_cell_length_c   3.60526299
_cell_angle_alpha   90.00000000
_cell_angle_beta   90.00000000
_cell_angle_gamma   90.00000000
_symmetry_Int_Tables_number   1
_chemical_formula_structural   Mo
_chemical_formula_sum   Mo16
_cell_volume   193.60820416
_cell_formula_units_Z   16
loop_
 _symmetry_equiv_pos_site_id
 _symmetry_equiv_pos_as_xyz
  1  'x, y, z'
loop_
 _atom_site_type_symbol
 _atom_site_label
 _atom_site_symmetry_multiplicity
 _atom_site_fract_x
 _atom_site_fract_y
 _atom_site_fract_z
 _atom_site_occupancy
  Mo  Mo0  1  0.31728600  7.66445000  3.84413000  1
  Mo  Mo1  1  2.18602000  2.24375000  0.20394400  1
  Mo  Mo2  1  2.18639000  0.43853800  2.03583000  1
  Mo  Mo3  1  0.31806700  2.25258000  1.99845000  1
  Mo  Mo4  1  4.02627000  7.66016000  3.84875000  1
  Mo  Mo5  1  5.89590000  2.24577000  0.21446400  1
  Mo  Mo6  1  5.91718000  0.43549000  2.03802000  1
  Mo  Mo7  1  4.04460000  2.24544000  2.01737000  1
  Mo  Mo8  1  7.79114000  4.05414000  0.21720300  1
  Mo  Mo9  1  2.19233000  5.84299000  0.22236300  1
  Mo  Mo10  1  2.20330000  4.04906000  2.03251000  1
  Mo  Mo11  1  0.32238300  5.85275000  2.01548000  1
  Mo  Mo12  1  4.05763000  4.05804000  0.22188200  1
  Mo  Mo13  1  5.91300000  5.85365000  3.82948000  1
  Mo  Mo14  1  5.92088000  4.03805000  2.03342000  1
  Mo  Mo15  1  4.05634000  5.86515000  2.02144000  1
