# generated using pymatgen
data_Mo
_symmetry_space_group_name_H-M   'P 1'
_cell_length_a   7.71474287
_cell_length_b   7.11648878
_cell_length_c   3.55727530
_cell_angle_alpha   90.00000000
_cell_angle_beta   90.00000000
_cell_angle_gamma   90.00000000
_symmetry_Int_Tables_number   1
_chemical_formula_structural   Mo
_chemical_formula_sum   Mo16
_cell_volume   195.30110531
_cell_formula_units_Z   16
loop_
 _symmetry_equiv_pos_site_id
 _symmetry_equiv_pos_as_xyz
  1  'x, y, z'
loop_
 _atom_site_type_symbol
 _atom_site_label
 _atom_site_symmetry_multiplicity
 _atom_site_fract_x
 _atom_site_fract_y
 _atom_site_fract_z
 _atom_site_occupancy
  Mo  Mo0  1  0.17667100  7.60510000  3.81382000  1
  Mo  Mo1  1  2.10894000  2.27771000  0.23181400  1
  Mo  Mo2  1  2.11900000  0.49665700  2.03371000  1
  Mo  Mo3  1  0.18947400  2.25652000  2.01385000  1
  Mo  Mo4  1  4.05159000  7.61008000  3.82072000  1
  Mo  Mo5  1  5.98633000  2.28372000  0.23187300  1
  Mo  Mo6  1  5.97578000  0.48969200  2.03711000  1
  Mo  Mo7  1  4.04767000  2.27244000  2.01783000  1
  Mo  Mo8  1  7.91444000  4.04933000  0.24413200  1
  Mo  Mo9  1  2.12445000  5.83218000  0.23566700  1
  Mo  Mo10  1  2.11536000  4.05280000  2.03251000  1
  Mo  Mo11  1  0.19595900  5.82803000  2.01402000  1
  Mo  Mo12  1  4.06556000  4.04484000  0.25111100  1
  Mo  Mo13  1  5.98506000  5.82875000  3.79966000  1
  Mo  Mo14  1  5.98129000  4.05613000  2.03678000  1
  Mo  Mo15  1  4.04769000  5.81602000  2.02812000  1
