# generated using pymatgen
data_Mo
_symmetry_space_group_name_H-M   'P 1'
_cell_length_a   8.32318881
_cell_length_b   6.93046224
_cell_length_c   3.46270967
_cell_angle_alpha   90.00000000
_cell_angle_beta   90.00000000
_cell_angle_gamma   90.00000000
_symmetry_Int_Tables_number   1
_chemical_formula_structural   Mo
_chemical_formula_sum   Mo16
_cell_volume   199.74137152
_cell_formula_units_Z   16
loop_
 _symmetry_equiv_pos_site_id
 _symmetry_equiv_pos_as_xyz
  1  'x, y, z'
loop_
 _atom_site_type_symbol
 _atom_site_label
 _atom_site_symmetry_multiplicity
 _atom_site_fract_x
 _atom_site_fract_y
 _atom_site_fract_z
 _atom_site_occupancy
  Mo  Mo0  1  1.96768000  2.30897000  0.30335000  1
  Mo  Mo1  1  1.95993000  0.57991300  2.01738000  1
  Mo  Mo2  1  -0.11303700  2.32800000  2.02189000  1
  Mo  Mo3  1  4.04367000  7.51971000  3.74588000  1
  Mo  Mo4  1  4.04460000  2.32049000  2.03836000  1
  Mo  Mo5  1  -0.10158200  4.05518000  3.75643000  1
  Mo  Mo6  1  1.97023000  5.77314000  0.29725800  1
  Mo  Mo7  1  1.97890000  4.04779000  2.02075000  1
  Mo  Mo8  1  -0.10538400  5.78554000  2.02002000  1
  Mo  Mo9  1  4.05924000  4.05508000  0.29744200  1
  Mo  Mo10  1  4.05518000  5.79725000  2.02575000  1
  Mo  Mo11  1  8.21060000  7.52106000  3.74222000  1
  Mo  Mo12  1  6.11873000  2.31166000  0.31194100  1
  Mo  Mo13  1  6.11720000  0.57745500  2.01866000  1
  Mo  Mo14  1  6.13241000  5.78157000  0.29856600  1
  Mo  Mo15  1  6.13844000  4.03721000  2.02140000  1
