# generated using pymatgen
data_Mo
_symmetry_space_group_name_H-M   'P 1'
_cell_length_a   8.15724832
_cell_length_b   6.97894782
_cell_length_c   3.48834467
_cell_angle_alpha   90.00000000
_cell_angle_beta   90.00000000
_cell_angle_gamma   90.00000000
_symmetry_Int_Tables_number   1
_chemical_formula_structural   Mo
_chemical_formula_sum   Mo16
_cell_volume   198.58800975
_cell_formula_units_Z   16
loop_
 _symmetry_equiv_pos_site_id
 _symmetry_equiv_pos_as_xyz
  1  'x, y, z'
loop_
 _atom_site_type_symbol
 _atom_site_label
 _atom_site_symmetry_multiplicity
 _atom_site_fract_x
 _atom_site_fract_y
 _atom_site_fract_z
 _atom_site_occupancy
  Mo  Mo0  1  -0.01506060  7.54073000  3.77150000  1
  Mo  Mo1  1  2.01682000  2.30127000  0.28266600  1
  Mo  Mo2  1  2.01810000  0.56417000  2.02187000  1
  Mo  Mo3  1  -0.01895830  2.30793000  2.03380000  1
  Mo  Mo4  1  4.06463000  7.53694000  3.76656000  1
  Mo  Mo5  1  6.09325000  2.30603000  0.27920000  1
  Mo  Mo6  1  6.09275000  0.55968500  2.01783000  1
  Mo  Mo7  1  4.04921000  2.31452000  2.02704000  1
  Mo  Mo8  1  8.11991000  4.04948000  0.26769800  1
  Mo  Mo9  1  2.00897000  5.79059000  0.28838100  1
  Mo  Mo10  1  2.00831000  4.04904000  2.02038000  1
  Mo  Mo11  1  -0.02852980  5.79583000  2.03483000  1
  Mo  Mo12  1  4.04040000  4.05294000  0.26305300  1
  Mo  Mo13  1  6.07960000  5.79270000  3.78077000  1
  Mo  Mo14  1  6.07224000  4.04889000  2.01732000  1
  Mo  Mo15  1  4.04110000  5.78926000  2.03874000  1
