# generated using pymatgen
data_Mo
_symmetry_space_group_name_H-M   'P 1'
_cell_length_a   7.41051990
_cell_length_b   7.22464129
_cell_length_c   3.61206079
_cell_angle_alpha   90.00000000
_cell_angle_beta   90.00000000
_cell_angle_gamma   90.00000000
_symmetry_Int_Tables_number   1
_chemical_formula_structural   Mo
_chemical_formula_sum   Mo16
_cell_volume   193.38376753
_cell_formula_units_Z   16
loop_
 _symmetry_equiv_pos_site_id
 _symmetry_equiv_pos_as_xyz
  1  'x, y, z'
loop_
 _atom_site_type_symbol
 _atom_site_label
 _atom_site_symmetry_multiplicity
 _atom_site_fract_x
 _atom_site_fract_y
 _atom_site_fract_z
 _atom_site_occupancy
  Mo  Mo0  1  0.33622200  7.65813000  3.82651000  1
  Mo  Mo1  1  2.19916000  2.24922000  0.22033700  1
  Mo  Mo2  1  2.17820000  0.44585100  2.01876000  1
  Mo  Mo3  1  0.34432000  2.24093000  2.03065000  1
  Mo  Mo4  1  4.04200000  7.64921000  3.83250000  1
  Mo  Mo5  1  5.90377000  2.24581000  0.22017900  1
  Mo  Mo6  1  5.89884000  0.44773800  2.02028000  1
  Mo  Mo7  1  4.04187000  2.23924000  2.03146000  1
  Mo  Mo8  1  7.75817000  4.03547000  0.20246500  1
  Mo  Mo9  1  2.20377000  5.85940000  0.22754700  1
  Mo  Mo10  1  2.20761000  4.06026000  2.00810000  1
  Mo  Mo11  1  0.34708200  5.84879000  2.03537000  1
  Mo  Mo12  1  4.06083000  4.04697000  0.20842500  1
  Mo  Mo13  1  5.91514000  5.86355000  3.84705000  1
  Mo  Mo14  1  5.89769000  4.05730000  2.01077000  1
  Mo  Mo15  1  4.05481000  5.85214000  2.04753000  1
