# generated using pymatgen
data_Mo
_symmetry_space_group_name_H-M   'P 1'
_cell_length_a   8.67399076
_cell_length_b   6.83314657
_cell_length_c   3.41372323
_cell_angle_alpha   90.00000000
_cell_angle_beta   90.00000000
_cell_angle_gamma   90.00000000
_symmetry_Int_Tables_number   1
_chemical_formula_structural   Mo
_chemical_formula_sum   Mo16
_cell_volume   202.33359548
_cell_formula_units_Z   16
loop_
 _symmetry_equiv_pos_site_id
 _symmetry_equiv_pos_as_xyz
  1  'x, y, z'
loop_
 _atom_site_type_symbol
 _atom_site_label
 _atom_site_symmetry_multiplicity
 _atom_site_fract_x
 _atom_site_fract_y
 _atom_site_fract_z
 _atom_site_occupancy
  Mo  Mo0  1  1.87389000  2.33458000  0.32043500  1
  Mo  Mo1  1  1.86984000  0.63215000  2.02613000  1
  Mo  Mo2  1  -0.29904100  2.34530000  2.03006000  1
  Mo  Mo3  1  4.03893000  7.46972000  3.73070000  1
  Mo  Mo4  1  4.05022000  2.34035000  2.01832000  1
  Mo  Mo5  1  -0.28413400  4.05418000  3.72465000  1
  Mo  Mo6  1  1.87731000  5.75280000  0.32338100  1
  Mo  Mo7  1  1.89939000  4.04912000  2.01948000  1
  Mo  Mo8  1  -0.29360400  5.76096000  2.03082000  1
  Mo  Mo9  1  4.05229000  4.05321000  0.30781600  1
  Mo  Mo10  1  4.05994000  5.76537000  2.03172000  1
  Mo  Mo11  1  8.38101000  7.47036000  3.73350000  1
  Mo  Mo12  1  6.21267000  2.33296000  0.31428700  1
  Mo  Mo13  1  6.22136000  0.63638500  2.02741000  1
  Mo  Mo14  1  6.21962000  5.75260000  0.32584800  1
  Mo  Mo15  1  6.24633000  4.04994000  2.02172000  1
