# generated using pymatgen
data_Mo
_symmetry_space_group_name_H-M   'P 1'
_cell_length_a   7.93017280
_cell_length_b   7.04688895
_cell_length_c   3.52307987
_cell_angle_alpha   90.00000000
_cell_angle_beta   90.00000000
_cell_angle_gamma   90.00000000
_symmetry_Int_Tables_number   1
_chemical_formula_structural   Mo
_chemical_formula_sum   Mo16
_cell_volume   196.88043830
_cell_formula_units_Z   16
loop_
 _symmetry_equiv_pos_site_id
 _symmetry_equiv_pos_as_xyz
  1  'x, y, z'
loop_
 _atom_site_type_symbol
 _atom_site_label
 _atom_site_symmetry_multiplicity
 _atom_site_fract_x
 _atom_site_fract_y
 _atom_site_fract_z
 _atom_site_occupancy
  Mo  Mo0  1  0.09050550  7.57449000  3.77431000  1
  Mo  Mo1  1  2.07027000  2.28101000  0.27498100  1
  Mo  Mo2  1  2.07656000  0.52213100  2.02062000  1
  Mo  Mo3  1  0.08802340  2.28740000  2.04016000  1
  Mo  Mo4  1  4.06066000  7.58195000  3.77217000  1
  Mo  Mo5  1  6.04469000  2.28094000  0.26850600  1
  Mo  Mo6  1  6.03751000  0.52378000  2.02013000  1
  Mo  Mo7  1  4.06120000  2.29495000  2.02916000  1
  Mo  Mo8  1  8.01321000  4.05548000  0.25790900  1
  Mo  Mo9  1  2.06735000  5.80809000  0.26905700  1
  Mo  Mo10  1  2.03962000  4.04472000  2.01984000  1
  Mo  Mo11  1  0.07947740  5.82593000  2.03495000  1
  Mo  Mo12  1  4.04563000  4.04925000  0.25602900  1
  Mo  Mo13  1  6.03097000  5.79913000  3.78935000  1
  Mo  Mo14  1  6.01845000  4.05464000  2.02004000  1
  Mo  Mo15  1  4.04569000  5.81611000  2.02972000  1
