# generated using pymatgen
data_Mo
_symmetry_space_group_name_H-M   'P 1'
_cell_length_a   8.15579286
_cell_length_b   6.97981858
_cell_length_c   3.48843241
_cell_angle_alpha   90.00000000
_cell_angle_beta   90.00000000
_cell_angle_gamma   90.00000000
_symmetry_Int_Tables_number   1
_chemical_formula_structural   Mo
_chemical_formula_sum   Mo16
_cell_volume   198.58234462
_cell_formula_units_Z   16
loop_
 _symmetry_equiv_pos_site_id
 _symmetry_equiv_pos_as_xyz
  1  'x, y, z'
loop_
 _atom_site_type_symbol
 _atom_site_label
 _atom_site_symmetry_multiplicity
 _atom_site_fract_x
 _atom_site_fract_y
 _atom_site_fract_z
 _atom_site_occupancy
  Mo  Mo0  1  -0.01400570  7.53869000  3.77488000  1
  Mo  Mo1  1  2.02094000  2.30287000  0.28286900  1
  Mo  Mo2  1  2.01693000  0.56671700  2.01994000  1
  Mo  Mo3  1  -0.01793370  2.30802000  2.03370000  1
  Mo  Mo4  1  4.06534000  7.53274000  3.76666000  1
  Mo  Mo5  1  6.09489000  2.30860000  0.27990500  1
  Mo  Mo6  1  6.08977000  0.56132700  2.01484000  1
  Mo  Mo7  1  4.04639000  2.31196000  2.02776000  1
  Mo  Mo8  1  8.11572000  4.04633000  0.26765200  1
  Mo  Mo9  1  2.01064000  5.79124000  0.29166000  1
  Mo  Mo10  1  2.01075000  4.05297000  2.01812000  1
  Mo  Mo11  1  -0.02747360  5.79269000  2.03785000  1
  Mo  Mo12  1  4.03901000  4.05004000  0.25986800  1
  Mo  Mo13  1  6.08246000  5.79632000  3.78257000  1
  Mo  Mo14  1  6.07112000  4.04982000  2.01366000  1
  Mo  Mo15  1  4.03966000  5.78968000  2.03962000  1
