# generated using pymatgen
data_Mo
_symmetry_space_group_name_H-M   'P 1'
_cell_length_a   7.38286331
_cell_length_b   7.23482749
_cell_length_c   3.61768603
_cell_angle_alpha   90.00000000
_cell_angle_beta   90.00000000
_cell_angle_gamma   90.00000000
_symmetry_Int_Tables_number   1
_chemical_formula_structural   Mo
_chemical_formula_sum   Mo16
_cell_volume   193.23415001
_cell_formula_units_Z   16
loop_
 _symmetry_equiv_pos_site_id
 _symmetry_equiv_pos_as_xyz
  1  'x, y, z'
loop_
 _atom_site_type_symbol
 _atom_site_label
 _atom_site_symmetry_multiplicity
 _atom_site_fract_x
 _atom_site_fract_y
 _atom_site_fract_z
 _atom_site_occupancy
  Mo  Mo0  1  0.35004400  7.65769000  3.83268000  1
  Mo  Mo1  1  2.20207000  2.24058000  0.21849700  1
  Mo  Mo2  1  2.20080000  0.44693000  2.01387000  1
  Mo  Mo3  1  0.35454700  2.22748000  2.03184000  1
  Mo  Mo4  1  4.04039000  7.66257000  3.83452000  1
  Mo  Mo5  1  5.89772000  2.25160000  0.21959300  1
  Mo  Mo6  1  5.88653000  0.43423800  2.01352000  1
  Mo  Mo7  1  4.05364000  2.24181000  2.03625000  1
  Mo  Mo8  1  7.75664000  4.04357000  0.20048700  1
  Mo  Mo9  1  2.21742000  5.86203000  0.22176500  1
  Mo  Mo10  1  2.19475000  4.06131000  2.01713000  1
  Mo  Mo11  1  0.36159800  5.86092000  2.02962000  1
  Mo  Mo12  1  4.05507000  4.03637000  0.20220500  1
  Mo  Mo13  1  5.89685000  5.86358000  3.84776000  1
  Mo  Mo14  1  5.89576000  4.05880000  2.01774000  1
  Mo  Mo15  1  4.05331000  5.85053000  2.04483000  1
