# generated using pymatgen
data_Mo
_symmetry_space_group_name_H-M   'P 1'
_cell_length_a   8.71474841
_cell_length_b   6.81018883
_cell_length_c   3.41514230
_cell_angle_alpha   90.00000000
_cell_angle_beta   90.00000000
_cell_angle_gamma   90.00000000
_symmetry_Int_Tables_number   1
_chemical_formula_structural   Mo
_chemical_formula_sum   Mo16
_cell_volume   202.68556127
_cell_formula_units_Z   16
loop_
 _symmetry_equiv_pos_site_id
 _symmetry_equiv_pos_as_xyz
  1  'x, y, z'
loop_
 _atom_site_type_symbol
 _atom_site_label
 _atom_site_symmetry_multiplicity
 _atom_site_fract_x
 _atom_site_fract_y
 _atom_site_fract_z
 _atom_site_occupancy
  Mo  Mo0  1  1.87042000  2.34033000  0.32147800  1
  Mo  Mo1  1  1.86446000  0.63567200  2.02969000  1
  Mo  Mo2  1  -0.30476800  2.35676000  2.02776000  1
  Mo  Mo3  1  4.04949000  7.46028000  3.72019000  1
  Mo  Mo4  1  4.05661000  2.35521000  2.02211000  1
  Mo  Mo5  1  -0.30852100  4.05870000  3.74563000  1
  Mo  Mo6  1  1.86223000  5.74394000  0.31360200  1
  Mo  Mo7  1  1.87913000  4.04235000  2.03338000  1
  Mo  Mo8  1  -0.31016800  5.75701000  2.02549000  1
  Mo  Mo9  1  4.04439000  4.06225000  0.32345400  1
  Mo  Mo10  1  4.05903000  5.75546000  2.00723000  1
  Mo  Mo11  1  8.41713000  7.46601000  3.72686000  1
  Mo  Mo12  1  6.22108000  2.33421000  0.32107100  1
  Mo  Mo13  1  6.23542000  0.64298200  2.03002000  1
  Mo  Mo14  1  6.21821000  5.74309000  0.30484400  1
  Mo  Mo15  1  6.23111000  4.04574000  2.03206000  1
