# generated using pymatgen
data_Mo
_symmetry_space_group_name_H-M   'P 1'
_cell_length_a   7.44836566
_cell_length_b   7.21009588
_cell_length_c   3.60501838
_cell_angle_alpha   90.00000000
_cell_angle_beta   90.00000000
_cell_angle_gamma   90.00000000
_symmetry_Int_Tables_number   1
_chemical_formula_structural   Mo
_chemical_formula_sum   Mo16
_cell_volume   193.60185411
_cell_formula_units_Z   16
loop_
 _symmetry_equiv_pos_site_id
 _symmetry_equiv_pos_as_xyz
  1  'x, y, z'
loop_
 _atom_site_type_symbol
 _atom_site_label
 _atom_site_symmetry_multiplicity
 _atom_site_fract_x
 _atom_site_fract_y
 _atom_site_fract_z
 _atom_site_occupancy
  Mo  Mo0  1  0.32279900  7.66543000  3.84089000  1
  Mo  Mo1  1  2.18907000  2.23917000  0.20477800  1
  Mo  Mo2  1  2.19166000  0.43641400  2.03611000  1
  Mo  Mo3  1  0.32239600  2.25268000  2.00383000  1
  Mo  Mo4  1  4.03225000  7.66518000  3.84357000  1
  Mo  Mo5  1  5.89599000  2.24172000  0.21352700  1
  Mo  Mo6  1  5.91039000  0.43436000  2.03801000  1
  Mo  Mo7  1  4.04478000  2.24400000  2.01998000  1
  Mo  Mo8  1  7.78955000  4.05836000  0.21665700  1
  Mo  Mo9  1  2.19298000  5.84479000  0.22162900  1
  Mo  Mo10  1  2.19743000  4.04759000  2.03328000  1
  Mo  Mo11  1  0.32627200  5.85353000  2.01987000  1
  Mo  Mo12  1  4.05736000  4.05771000  0.21936700  1
  Mo  Mo13  1  5.91047000  5.85403000  3.82665000  1
  Mo  Mo14  1  5.91613000  4.03764000  2.03389000  1
  Mo  Mo15  1  4.05211000  5.86740000  2.02294000  1
