# generated using pymatgen
data_Mo
_symmetry_space_group_name_H-M   'P 1'
_cell_length_a   8.61139935
_cell_length_b   6.85706830
_cell_length_c   3.41764665
_cell_angle_alpha   90.00000000
_cell_angle_beta   90.00000000
_cell_angle_gamma   90.00000000
_symmetry_Int_Tables_number   1
_chemical_formula_structural   Mo
_chemical_formula_sum   Mo16
_cell_volume   201.80845798
_cell_formula_units_Z   16
loop_
 _symmetry_equiv_pos_site_id
 _symmetry_equiv_pos_as_xyz
  1  'x, y, z'
loop_
 _atom_site_type_symbol
 _atom_site_label
 _atom_site_symmetry_multiplicity
 _atom_site_fract_x
 _atom_site_fract_y
 _atom_site_fract_z
 _atom_site_occupancy
  Mo  Mo0  1  1.90461000  2.33089000  0.31780200  1
  Mo  Mo1  1  1.90037000  0.61722900  2.02460000  1
  Mo  Mo2  1  -0.24484900  2.34834000  2.02586000  1
  Mo  Mo3  1  4.06225000  7.48354000  3.73007000  1
  Mo  Mo4  1  4.05364000  2.33784000  2.02836000  1
  Mo  Mo5  1  -0.26468500  4.05462000  3.71724000  1
  Mo  Mo6  1  1.88782000  5.75015000  0.33146200  1
  Mo  Mo7  1  1.88530000  4.04911000  2.01713000  1
  Mo  Mo8  1  -0.25677600  5.76369000  2.03973000  1
  Mo  Mo9  1  4.04714000  4.05606000  0.29897000  1
  Mo  Mo10  1  4.04630000  5.77485000  2.03409000  1
  Mo  Mo11  1  8.36671000  7.48691000  3.73094000  1
  Mo  Mo12  1  6.20388000  2.32732000  0.31814100  1
  Mo  Mo13  1  6.20853000  0.62130900  2.02470000  1
  Mo  Mo14  1  6.20448000  5.75143000  0.32639200  1
  Mo  Mo15  1  6.18388000  4.04672000  2.01687000  1
