# generated using pymatgen
data_Mo
_symmetry_space_group_name_H-M   'P 1'
_cell_length_a   7.91561726
_cell_length_b   7.05057371
_cell_length_c   3.52569985
_cell_angle_alpha   90.00000000
_cell_angle_beta   90.00000000
_cell_angle_gamma   90.00000000
_symmetry_Int_Tables_number   1
_chemical_formula_structural   Mo
_chemical_formula_sum   Mo16
_cell_volume   196.76804984
_cell_formula_units_Z   16
loop_
 _symmetry_equiv_pos_site_id
 _symmetry_equiv_pos_as_xyz
  1  'x, y, z'
loop_
 _atom_site_type_symbol
 _atom_site_label
 _atom_site_symmetry_multiplicity
 _atom_site_fract_x
 _atom_site_fract_y
 _atom_site_fract_z
 _atom_site_occupancy
  Mo  Mo0  1  0.08792530  7.57825000  3.80372000  1
  Mo  Mo1  1  2.06223000  2.28994000  0.25169300  1
  Mo  Mo2  1  2.06052000  0.52907600  2.02912000  1
  Mo  Mo3  1  0.09301000  2.28724000  2.01269000  1
  Mo  Mo4  1  4.04554000  7.56799000  3.79934000  1
  Mo  Mo5  1  6.01749000  2.29301000  0.25588700  1
  Mo  Mo6  1  6.02587000  0.52419000  2.02787000  1
  Mo  Mo7  1  4.04308000  2.28782000  2.02012000  1
  Mo  Mo8  1  8.01195000  4.04764000  0.26110300  1
  Mo  Mo9  1  2.06776000  5.81281000  0.26443600  1
  Mo  Mo10  1  2.09317000  4.05257000  2.03032000  1
  Mo  Mo11  1  0.09947390  5.80407000  2.02356000  1
  Mo  Mo12  1  4.05776000  4.05376000  0.25655600  1
  Mo  Mo13  1  6.02643000  5.82054000  3.78827000  1
  Mo  Mo14  1  6.03648000  4.04523000  2.02791000  1
  Mo  Mo15  1  4.05569000  5.80588000  2.02171000  1
