# generated using pymatgen
data_Mo
_symmetry_space_group_name_H-M   'P 1'
_cell_length_a   8.35230085
_cell_length_b   6.92140627
_cell_length_c   3.45855546
_cell_angle_alpha   90.00000000
_cell_angle_beta   90.00000000
_cell_angle_gamma   90.00000000
_symmetry_Int_Tables_number   1
_chemical_formula_structural   Mo
_chemical_formula_sum   Mo16
_cell_volume   199.93794111
_cell_formula_units_Z   16
loop_
 _symmetry_equiv_pos_site_id
 _symmetry_equiv_pos_as_xyz
  1  'x, y, z'
loop_
 _atom_site_type_symbol
 _atom_site_label
 _atom_site_symmetry_multiplicity
 _atom_site_fract_x
 _atom_site_fract_y
 _atom_site_fract_z
 _atom_site_occupancy
  Mo  Mo0  1  1.96261000  2.31495000  0.28883800  1
  Mo  Mo1  1  1.96181000  0.58115200  2.02626000  1
  Mo  Mo2  1  -0.13258700  2.31996000  2.01864000  1
  Mo  Mo3  1  4.04050000  7.52251000  3.76210000  1
  Mo  Mo4  1  4.04214000  2.31979000  2.02639000  1
  Mo  Mo5  1  -0.11908800  4.05963000  3.75162000  1
  Mo  Mo6  1  1.96986000  5.78097000  0.28819900  1
  Mo  Mo7  1  1.97734000  4.03992000  2.04122000  1
  Mo  Mo8  1  -0.12311400  5.78636000  2.01707000  1
  Mo  Mo9  1  4.04841000  4.05693000  0.30118600  1
  Mo  Mo10  1  4.05000000  5.78438000  2.01315000  1
  Mo  Mo11  1  8.22439000  7.51508000  3.75406000  1
  Mo  Mo12  1  6.13116000  2.31136000  0.29379600  1
  Mo  Mo13  1  6.12687000  0.58534300  2.02978000  1
  Mo  Mo14  1  6.13453000  5.77625000  0.28544700  1
  Mo  Mo15  1  6.15289000  4.04542000  2.04369000  1
