# generated using pymatgen
data_Mo
_symmetry_space_group_name_H-M   'P 1'
_cell_length_a   8.69436911
_cell_length_b   6.81950867
_cell_length_c   3.41556001
_cell_angle_alpha   90.00000000
_cell_angle_beta   90.00000000
_cell_angle_gamma   90.00000000
_symmetry_Int_Tables_number   1
_chemical_formula_structural   Mo
_chemical_formula_sum   Mo16
_cell_volume   202.51308023
_cell_formula_units_Z   16
loop_
 _symmetry_equiv_pos_site_id
 _symmetry_equiv_pos_as_xyz
  1  'x, y, z'
loop_
 _atom_site_type_symbol
 _atom_site_label
 _atom_site_symmetry_multiplicity
 _atom_site_fract_x
 _atom_site_fract_y
 _atom_site_fract_z
 _atom_site_occupancy
  Mo  Mo0  1  1.88572000  2.35404000  0.31400100  1
  Mo  Mo1  1  1.89438000  0.64800300  2.02864000  1
  Mo  Mo2  1  -0.29048400  2.33974000  2.02254000  1
  Mo  Mo3  1  4.05170000  7.45863000  3.73716000  1
  Mo  Mo4  1  4.04764000  2.33686000  2.02573000  1
  Mo  Mo5  1  -0.29744500  4.04493000  3.73064000  1
  Mo  Mo6  1  1.88587000  5.75818000  0.31569900  1
  Mo  Mo7  1  1.86040000  4.05931000  2.01671000  1
  Mo  Mo8  1  -0.29464900  5.74381000  2.02674000  1
  Mo  Mo9  1  4.04798000  4.04035000  0.32425000  1
  Mo  Mo10  1  4.03650000  5.74952000  2.03415000  1
  Mo  Mo11  1  8.39316000  7.45170000  3.72812000  1
  Mo  Mo12  1  6.22973000  2.35129000  0.31215800  1
  Mo  Mo13  1  6.21962000  0.64981400  2.03183000  1
  Mo  Mo14  1  6.22950000  5.75262000  0.31589800  1
  Mo  Mo15  1  6.20600000  4.06120000  2.02018000  1
