# generated using pymatgen
data_Mo
_symmetry_space_group_name_H-M   'P 1'
_cell_length_a   7.39596388
_cell_length_b   7.22933257
_cell_length_c   3.61552882
_cell_angle_alpha   90.00000000
_cell_angle_beta   90.00000000
_cell_angle_gamma   90.00000000
_symmetry_Int_Tables_number   1
_chemical_formula_structural   Mo
_chemical_formula_sum   Mo16
_cell_volume   193.31467029
_cell_formula_units_Z   16
loop_
 _symmetry_equiv_pos_site_id
 _symmetry_equiv_pos_as_xyz
  1  'x, y, z'
loop_
 _atom_site_type_symbol
 _atom_site_label
 _atom_site_symmetry_multiplicity
 _atom_site_fract_x
 _atom_site_fract_y
 _atom_site_fract_z
 _atom_site_occupancy
  Mo  Mo0  1  0.36555200  7.67096000  3.83432000  1
  Mo  Mo1  1  2.20617000  2.24218000  0.22045600  1
  Mo  Mo2  1  2.21531000  0.42189300  2.03103000  1
  Mo  Mo3  1  0.35428600  2.25202000  2.02136000  1
  Mo  Mo4  1  4.06061000  7.67345000  3.82853000  1
  Mo  Mo5  1  5.90088000  2.23523000  0.21835500  1
  Mo  Mo6  1  5.90957000  0.43056000  2.02977000  1
  Mo  Mo7  1  4.05142000  2.24328000  2.01510000  1
  Mo  Mo8  1  7.73296000  4.06007000  0.23922400  1
  Mo  Mo9  1  2.19247000  5.85508000  0.21085300  1
  Mo  Mo10  1  2.20109000  4.03834000  2.03640000  1
  Mo  Mo11  1  0.34528900  5.86077000  2.01701000  1
  Mo  Mo12  1  4.03519000  4.05760000  0.23347200  1
  Mo  Mo13  1  5.89095000  5.85157000  3.81606000  1
  Mo  Mo14  1  5.89926000  4.04205000  2.03405000  1
  Mo  Mo15  1  4.04303000  5.86497000  1.99849000  1
