# generated using pymatgen
data_Mo
_symmetry_space_group_name_H-M   'P 1'
_cell_length_a   7.34647301
_cell_length_b   7.24887523
_cell_length_c   3.62522745
_cell_angle_alpha   90.00000000
_cell_angle_beta   90.00000000
_cell_angle_gamma   90.00000000
_symmetry_Int_Tables_number   1
_chemical_formula_structural   Mo
_chemical_formula_sum   Mo16
_cell_volume   193.05665267
_cell_formula_units_Z   16
loop_
 _symmetry_equiv_pos_site_id
 _symmetry_equiv_pos_as_xyz
  1  'x, y, z'
loop_
 _atom_site_type_symbol
 _atom_site_label
 _atom_site_symmetry_multiplicity
 _atom_site_fract_x
 _atom_site_fract_y
 _atom_site_fract_z
 _atom_site_occupancy
  Mo  Mo0  1  0.37598100  7.68203000  3.83618000  1
  Mo  Mo1  1  2.20215000  2.24009000  0.20463900  1
  Mo  Mo2  1  2.20483000  0.41450000  2.04055000  1
  Mo  Mo3  1  0.37556700  2.24645000  2.01591000  1
  Mo  Mo4  1  4.05445000  7.68423000  3.84333000  1
  Mo  Mo5  1  5.88406000  2.23170000  0.20291000  1
  Mo  Mo6  1  5.88858000  0.42144700  2.04336000  1
  Mo  Mo7  1  4.05247000  2.24214000  2.01373000  1
  Mo  Mo8  1  7.71896000  4.05706000  0.21546000  1
  Mo  Mo9  1  2.20282000  5.85684000  0.20393100  1
  Mo  Mo10  1  2.21892000  4.04174000  2.03036000  1
  Mo  Mo11  1  0.37855500  5.86233000  2.01712000  1
  Mo  Mo12  1  4.05426000  4.05808000  0.22268500  1
  Mo  Mo13  1  5.88504000  5.85217000  3.83082000  1
  Mo  Mo14  1  5.89927000  4.04543000  2.03370000  1
  Mo  Mo15  1  4.05759000  5.86378000  2.02010000  1
