# generated using pymatgen
data_Mo
_symmetry_space_group_name_H-M   'P 1'
_cell_length_a   7.67689665
_cell_length_b   7.12820169
_cell_length_c   3.56410646
_cell_angle_alpha   90.00000000
_cell_angle_beta   90.00000000
_cell_angle_gamma   90.00000000
_symmetry_Int_Tables_number   1
_chemical_formula_structural   Mo
_chemical_formula_sum   Mo16
_cell_volume   195.03670079
_cell_formula_units_Z   16
loop_
 _symmetry_equiv_pos_site_id
 _symmetry_equiv_pos_as_xyz
  1  'x, y, z'
loop_
 _atom_site_type_symbol
 _atom_site_label
 _atom_site_symmetry_multiplicity
 _atom_site_fract_x
 _atom_site_fract_y
 _atom_site_fract_z
 _atom_site_occupancy
  Mo  Mo0  1  0.20605500  7.61495000  3.80177000  1
  Mo  Mo1  1  2.13347000  2.25558000  0.24099400  1
  Mo  Mo2  1  2.13361000  0.48571900  2.02108000  1
  Mo  Mo3  1  0.21088200  2.26914000  2.02425000  1
  Mo  Mo4  1  4.04200000  7.62317000  3.80631000  1
  Mo  Mo5  1  5.96641000  2.26288000  0.24748400  1
  Mo  Mo6  1  5.95193000  0.47912300  2.02249000  1
  Mo  Mo7  1  4.04577000  2.27013000  2.03645000  1
  Mo  Mo8  1  7.89375000  4.05673000  0.22291600  1
  Mo  Mo9  1  2.14027000  5.82519000  0.25197200  1
  Mo  Mo10  1  2.13483000  4.05147000  2.01708000  1
  Mo  Mo11  1  0.22022300  5.83947000  2.03302000  1
  Mo  Mo12  1  4.04975000  4.04861000  0.22745300  1
  Mo  Mo13  1  5.97048000  5.82901000  3.82111000  1
  Mo  Mo14  1  5.97492000  4.04593000  2.01825000  1
  Mo  Mo15  1  4.04876000  5.84290000  2.04328000  1
