# generated using pymatgen
data_Mo
_symmetry_space_group_name_H-M   'P 1'
_cell_length_a   7.57645944
_cell_length_b   7.16029090
_cell_length_c   3.58276057
_cell_angle_alpha   90.00000000
_cell_angle_beta   90.00000000
_cell_angle_gamma   90.00000000
_symmetry_Int_Tables_number   1
_chemical_formula_structural   Mo
_chemical_formula_sum   Mo16
_cell_volume   194.36351978
_cell_formula_units_Z   16
loop_
 _symmetry_equiv_pos_site_id
 _symmetry_equiv_pos_as_xyz
  1  'x, y, z'
loop_
 _atom_site_type_symbol
 _atom_site_label
 _atom_site_symmetry_multiplicity
 _atom_site_fract_x
 _atom_site_fract_y
 _atom_site_fract_z
 _atom_site_occupancy
  Mo  Mo0  1  0.26237300  7.63482000  3.80635000  1
  Mo  Mo1  1  2.15133000  2.25743000  0.24228800  1
  Mo  Mo2  1  2.14262000  0.46254900  2.02497000  1
  Mo  Mo3  1  0.25166800  2.26202000  2.03207000  1
  Mo  Mo4  1  4.05298000  7.63980000  3.80937000  1
  Mo  Mo5  1  5.95353000  2.25606000  0.23592200  1
  Mo  Mo6  1  5.94022000  0.46249900  2.02660000  1
  Mo  Mo7  1  4.05685000  2.27560000  2.02221000  1
  Mo  Mo8  1  7.84418000  4.05862000  0.23818000  1
  Mo  Mo9  1  2.16202000  5.83737000  0.22850600  1
  Mo  Mo10  1  2.14621000  4.03801000  2.02654000  1
  Mo  Mo11  1  0.25726900  5.85077000  2.01879000  1
  Mo  Mo12  1  4.04929000  4.05482000  0.24129100  1
  Mo  Mo13  1  5.94538000  5.82673000  3.81322000  1
  Mo  Mo14  1  5.95129000  4.04879000  2.02941000  1
  Mo  Mo15  1  4.05634000  5.83411000  2.02152000  1
