# generated using pymatgen
data_Mo
_symmetry_space_group_name_H-M   'P 1'
_cell_length_a   7.67544118
_cell_length_b   7.13009197
_cell_length_c   3.56360936
_cell_angle_alpha   90.00000000
_cell_angle_beta   90.00000000
_cell_angle_gamma   90.00000000
_symmetry_Int_Tables_number   1
_chemical_formula_structural   Mo
_chemical_formula_sum   Mo16
_cell_volume   195.02422928
_cell_formula_units_Z   16
loop_
 _symmetry_equiv_pos_site_id
 _symmetry_equiv_pos_as_xyz
  1  'x, y, z'
loop_
 _atom_site_type_symbol
 _atom_site_label
 _atom_site_symmetry_multiplicity
 _atom_site_fract_x
 _atom_site_fract_y
 _atom_site_fract_z
 _atom_site_occupancy
  Mo  Mo0  1  0.20728100  7.61294000  3.80477000  1
  Mo  Mo1  1  2.13396000  2.25530000  0.24056800  1
  Mo  Mo2  1  2.14031000  0.48817900  2.01882000  1
  Mo  Mo3  1  0.21123400  2.26628000  2.02404000  1
  Mo  Mo4  1  4.04013000  7.62116000  3.80743000  1
  Mo  Mo5  1  5.96540000  2.26442000  0.24787500  1
  Mo  Mo6  1  5.95805000  0.47995300  2.01975000  1
  Mo  Mo7  1  4.04803000  2.27015000  2.03769000  1
  Mo  Mo8  1  7.89377000  4.05482000  0.22218600  1
  Mo  Mo9  1  2.14071000  5.82802000  0.25511300  1
  Mo  Mo10  1  2.13315000  4.05327000  2.01572000  1
  Mo  Mo11  1  0.21814400  5.83931000  2.03629000  1
  Mo  Mo12  1  4.04651000  4.04574000  0.22475400  1
  Mo  Mo13  1  5.96674000  5.83213000  3.82172000  1
  Mo  Mo14  1  5.97363000  4.04784000  2.01603000  1
  Mo  Mo15  1  4.04750000  5.84050000  2.04364000  1
