# generated using pymatgen
data_Mo
_symmetry_space_group_name_H-M   'P 1'
_cell_length_a   7.95491847
_cell_length_b   7.03947580
_cell_length_c   3.51918983
_cell_angle_alpha   90.00000000
_cell_angle_beta   90.00000000
_cell_angle_gamma   90.00000000
_symmetry_Int_Tables_number   1
_chemical_formula_structural   Mo
_chemical_formula_sum   Mo16
_cell_volume   197.06919738
_cell_formula_units_Z   16
loop_
 _symmetry_equiv_pos_site_id
 _symmetry_equiv_pos_as_xyz
  1  'x, y, z'
loop_
 _atom_site_type_symbol
 _atom_site_label
 _atom_site_symmetry_multiplicity
 _atom_site_fract_x
 _atom_site_fract_y
 _atom_site_fract_z
 _atom_site_occupancy
  Mo  Mo0  1  0.06725030  7.57674000  3.78812000  1
  Mo  Mo1  1  2.06651000  2.28339000  0.27077800  1
  Mo  Mo2  1  2.04547000  0.52614900  2.02202000  1
  Mo  Mo3  1  0.06704400  2.29653000  2.02858000  1
  Mo  Mo4  1  4.03668000  7.56727000  3.78466000  1
  Mo  Mo5  1  6.03839000  2.27965000  0.26518200  1
  Mo  Mo6  1  6.03683000  0.52852900  2.02093000  1
  Mo  Mo7  1  4.04723000  2.29199000  2.02037000  1
  Mo  Mo8  1  8.03489000  4.04801000  0.25343400  1
  Mo  Mo9  1  2.07024000  5.80537000  0.27959800  1
  Mo  Mo10  1  2.06640000  4.04889000  2.01334000  1
  Mo  Mo11  1  0.06969510  5.81663000  2.03480000  1
  Mo  Mo12  1  4.05489000  4.05502000  0.25009200  1
  Mo  Mo13  1  6.04936000  5.80790000  3.79938000  1
  Mo  Mo14  1  6.03710000  4.04699000  2.01343000  1
  Mo  Mo15  1  4.05710000  5.82093000  2.03608000  1
