# generated using pymatgen
data_Mo
_symmetry_space_group_name_H-M   'P 1'
_cell_length_a   7.72493204
_cell_length_b   7.11355162
_cell_length_c   3.55533338
_cell_angle_alpha   90.00000000
_cell_angle_beta   90.00000000
_cell_angle_gamma   90.00000000
_symmetry_Int_Tables_number   1
_chemical_formula_structural   Mo
_chemical_formula_sum   Mo16
_cell_volume   195.37162316
_cell_formula_units_Z   16
loop_
 _symmetry_equiv_pos_site_id
 _symmetry_equiv_pos_as_xyz
  1  'x, y, z'
loop_
 _atom_site_type_symbol
 _atom_site_label
 _atom_site_symmetry_multiplicity
 _atom_site_fract_x
 _atom_site_fract_y
 _atom_site_fract_z
 _atom_site_occupancy
  Mo  Mo0  1  0.18627800  7.60073000  3.78792000  1
  Mo  Mo1  1  2.11554000  2.26877000  0.25885500  1
  Mo  Mo2  1  2.11475000  0.49538100  2.01006000  1
  Mo  Mo3  1  0.17864500  2.27792000  2.03198000  1
  Mo  Mo4  1  4.03957000  7.60654000  3.79129000  1
  Mo  Mo5  1  5.97108000  2.26864000  0.26571800  1
  Mo  Mo6  1  5.97212000  0.49535400  2.01150000  1
  Mo  Mo7  1  4.04820000  2.27343000  2.04187000  1
  Mo  Mo8  1  7.91848000  4.05102000  0.24842600  1
  Mo  Mo9  1  2.12141000  5.82772000  0.25142500  1
  Mo  Mo10  1  2.13287000  4.05045000  2.01840000  1
  Mo  Mo11  1  0.19027800  5.82905000  2.02795000  1
  Mo  Mo12  1  4.04700000  4.04614000  0.25165400  1
  Mo  Mo13  1  5.97793000  5.82719000  3.80470000  1
  Mo  Mo14  1  6.00391000  4.04902000  2.01858000  1
  Mo  Mo15  1  4.05700000  5.83264000  2.02435000  1
