# generated using pymatgen
data_Mo
_symmetry_space_group_name_H-M   'P 1'
_cell_length_a   8.55317524
_cell_length_b   6.88384283
_cell_length_c   3.41963172
_cell_angle_alpha   90.00000000
_cell_angle_beta   90.00000000
_cell_angle_gamma   90.00000000
_symmetry_Int_Tables_number   1
_chemical_formula_structural   Mo
_chemical_formula_sum   Mo16
_cell_volume   201.34351807
_cell_formula_units_Z   16
loop_
 _symmetry_equiv_pos_site_id
 _symmetry_equiv_pos_as_xyz
  1  'x, y, z'
loop_
 _atom_site_type_symbol
 _atom_site_label
 _atom_site_symmetry_multiplicity
 _atom_site_fract_x
 _atom_site_fract_y
 _atom_site_fract_z
 _atom_site_occupancy
  Mo  Mo0  1  1.91143000  2.32132000  0.30560100  1
  Mo  Mo1  1  1.91802000  0.60548700  2.03537000  1
  Mo  Mo2  1  -0.22573200  2.32720000  2.00709000  1
  Mo  Mo3  1  4.04378000  7.50290000  3.74254000  1
  Mo  Mo4  1  4.04111000  2.34200000  2.02326000  1
  Mo  Mo5  1  -0.21889500  4.06169000  3.72908000  1
  Mo  Mo6  1  1.92736000  5.75996000  0.31879100  1
  Mo  Mo7  1  1.91262000  4.04405000  2.02545000  1
  Mo  Mo8  1  -0.22036600  5.77775000  2.02270000  1
  Mo  Mo9  1  4.05700000  4.05754000  0.31261300  1
  Mo  Mo10  1  4.04034000  5.76781000  2.02787000  1
  Mo  Mo11  1  8.31264000  7.50019000  3.73909000  1
  Mo  Mo12  1  6.19330000  2.33079000  0.31220700  1
  Mo  Mo13  1  6.17968000  0.59617600  2.03567000  1
  Mo  Mo14  1  6.19249000  5.76261000  0.31843100  1
  Mo  Mo15  1  6.18206000  4.04251000  2.02462000  1
