# generated using pymatgen
data_Mo
_symmetry_space_group_name_H-M   'P 1'
_cell_length_a   8.64924508
_cell_length_b   6.84529066
_cell_length_c   3.41389251
_cell_angle_alpha   90.00000000
_cell_angle_beta   90.00000000
_cell_angle_gamma   90.00000000
_symmetry_Int_Tables_number   1
_chemical_formula_structural   Mo
_chemical_formula_sum   Mo16
_cell_volume   202.12495650
_cell_formula_units_Z   16
loop_
 _symmetry_equiv_pos_site_id
 _symmetry_equiv_pos_as_xyz
  1  'x, y, z'
loop_
 _atom_site_type_symbol
 _atom_site_label
 _atom_site_symmetry_multiplicity
 _atom_site_fract_x
 _atom_site_fract_y
 _atom_site_fract_z
 _atom_site_occupancy
  Mo  Mo0  1  1.89498000  2.33078000  0.31807400  1
  Mo  Mo1  1  1.88469000  0.61982400  2.02962000  1
  Mo  Mo2  1  -0.27197200  2.34389000  2.02471000  1
  Mo  Mo3  1  4.06646000  7.47734000  3.73523000  1
  Mo  Mo4  1  4.04699000  2.34236000  2.02173000  1
  Mo  Mo5  1  -0.29898000  4.05454000  3.72698000  1
  Mo  Mo6  1  1.87997000  5.76059000  0.31230200  1
  Mo  Mo7  1  1.88584000  4.04074000  2.03200000  1
  Mo  Mo8  1  -0.27908900  5.76715000  2.01692000  1
  Mo  Mo9  1  4.04110000  4.06260000  0.32314500  1
  Mo  Mo10  1  4.04559000  5.76934000  2.02520000  1
  Mo  Mo11  1  8.38069000  7.47992000  3.72591000  1
  Mo  Mo12  1  6.22611000  2.32354000  0.31330000  1
  Mo  Mo13  1  6.22041000  0.62631400  2.03126000  1
  Mo  Mo14  1  6.22245000  5.75513000  0.31487200  1
  Mo  Mo15  1  6.20553000  4.04594000  2.03483000  1
