# generated using pymatgen
data_Mo
_symmetry_space_group_name_H-M   'P 1'
_cell_length_a   8.60848841
_cell_length_b   6.85731947
_cell_length_c   3.41815829
_cell_angle_alpha   90.00000000
_cell_angle_beta   90.00000000
_cell_angle_gamma   90.00000000
_symmetry_Int_Tables_number   1
_chemical_formula_structural   Mo
_chemical_formula_sum   Mo16
_cell_volume   201.77783276
_cell_formula_units_Z   16
loop_
 _symmetry_equiv_pos_site_id
 _symmetry_equiv_pos_as_xyz
  1  'x, y, z'
loop_
 _atom_site_type_symbol
 _atom_site_label
 _atom_site_symmetry_multiplicity
 _atom_site_fract_x
 _atom_site_fract_y
 _atom_site_fract_z
 _atom_site_occupancy
  Mo  Mo0  1  1.90598000  2.33845000  0.31191400  1
  Mo  Mo1  1  1.90807000  0.61590500  2.02359000  1
  Mo  Mo2  1  -0.24347900  2.34457000  2.02339000  1
  Mo  Mo3  1  4.05387000  7.48005000  3.73918000  1
  Mo  Mo4  1  4.05358000  2.33593000  2.02928000  1
  Mo  Mo5  1  -0.25853000  4.04812000  3.71712000  1
  Mo  Mo6  1  1.89146000  5.75518000  0.32619800  1
  Mo  Mo7  1  1.89013000  4.05011000  2.02351000  1
  Mo  Mo8  1  -0.25812100  5.76352000  2.03666000  1
  Mo  Mo9  1  4.04459000  4.05450000  0.30448900  1
  Mo  Mo10  1  4.04633000  5.77100000  2.02969000  1
  Mo  Mo11  1  8.36616000  7.48397000  3.73356000  1
  Mo  Mo12  1  6.19745000  2.32992000  0.31377800  1
  Mo  Mo13  1  6.21679000  0.62410500  2.02547000  1
  Mo  Mo14  1  6.19763000  5.75357000  0.31959700  1
  Mo  Mo15  1  6.17960000  4.05110000  2.02442000  1
