# generated using pymatgen
data_Mo
_symmetry_space_group_name_H-M   'P 1'
_cell_length_a   8.18781678
_cell_length_b   6.96952307
_cell_length_c   3.48390985
_cell_angle_alpha   90.00000000
_cell_angle_beta   90.00000000
_cell_angle_gamma   90.00000000
_symmetry_Int_Tables_number   1
_chemical_formula_structural   Mo
_chemical_formula_sum   Mo16
_cell_volume   198.80993532
_cell_formula_units_Z   16
loop_
 _symmetry_equiv_pos_site_id
 _symmetry_equiv_pos_as_xyz
  1  'x, y, z'
loop_
 _atom_site_type_symbol
 _atom_site_label
 _atom_site_symmetry_multiplicity
 _atom_site_fract_x
 _atom_site_fract_y
 _atom_site_fract_z
 _atom_site_occupancy
  Mo  Mo0  1  -0.04148700  7.54403000  3.77698000  1
  Mo  Mo1  1  2.00741000  2.30675000  0.28153600  1
  Mo  Mo2  1  2.01357000  0.55303500  2.04083000  1
  Mo  Mo3  1  -0.04416100  2.32114000  2.01846000  1
  Mo  Mo4  1  4.04999000  7.53921000  3.77082000  1
  Mo  Mo5  1  6.09494000  2.29947000  0.27180400  1
  Mo  Mo6  1  6.11370000  0.56205800  2.03819000  1
  Mo  Mo7  1  4.05197000  2.30872000  2.00168000  1
  Mo  Mo8  1  8.13977000  4.05585000  0.29175000  1
  Mo  Mo9  1  1.99590000  5.79042000  0.28633900  1
  Mo  Mo10  1  1.99734000  4.03943000  2.02156000  1
  Mo  Mo11  1  -0.05242290  5.79033000  2.02493000  1
  Mo  Mo12  1  4.04789000  4.06028000  0.28564300  1
  Mo  Mo13  1  6.09885000  5.78898000  3.76715000  1
  Mo  Mo14  1  6.09261000  4.04058000  2.02021000  1
  Mo  Mo15  1  4.04632000  5.79973000  2.01819000  1
