# generated using pymatgen
data_Mo
_symmetry_space_group_name_H-M   'P 1'
_cell_length_a   7.85448129
_cell_length_b   7.07097393
_cell_length_c   3.53472304
_cell_angle_alpha   90.00000000
_cell_angle_beta   90.00000000
_cell_angle_gamma   90.00000000
_symmetry_Int_Tables_number   1
_chemical_formula_structural   Mo
_chemical_formula_sum   Mo16
_cell_volume   196.31439082
_cell_formula_units_Z   16
loop_
 _symmetry_equiv_pos_site_id
 _symmetry_equiv_pos_as_xyz
  1  'x, y, z'
loop_
 _atom_site_type_symbol
 _atom_site_label
 _atom_site_symmetry_multiplicity
 _atom_site_fract_x
 _atom_site_fract_y
 _atom_site_fract_z
 _atom_site_occupancy
  Mo  Mo0  1  0.12988900  7.58507000  3.79199000  1
  Mo  Mo1  1  2.08467000  2.27198000  0.25974700  1
  Mo  Mo2  1  2.09552000  0.51566000  2.02505000  1
  Mo  Mo3  1  0.12481000  2.29272000  2.02958000  1
  Mo  Mo4  1  4.07197000  7.58983000  3.78370000  1
  Mo  Mo5  1  6.02662000  2.27801000  0.26085100  1
  Mo  Mo6  1  6.02049000  0.51145900  2.02056000  1
  Mo  Mo7  1  4.05153000  2.29313000  2.02903000  1
  Mo  Mo8  1  7.95675000  4.05839000  0.24621200  1
  Mo  Mo9  1  2.07424000  5.80732000  0.27118800  1
  Mo  Mo10  1  2.07821000  4.04851000  2.01771000  1
  Mo  Mo11  1  0.11840300  5.81989000  2.04098000  1
  Mo  Mo12  1  4.04267000  4.05161000  0.23772600  1
  Mo  Mo13  1  6.01266000  5.81163000  3.80349000  1
  Mo  Mo14  1  6.01586000  4.04477000  2.01257000  1
  Mo  Mo15  1  4.04122000  5.82002000  2.03490000  1
