# generated using pymatgen
data_Mo
_symmetry_space_group_name_H-M   'P 1'
_cell_length_a   8.34502261
_cell_length_b   6.92281866
_cell_length_c   3.45998740
_cell_angle_alpha   90.00000000
_cell_angle_beta   90.00000000
_cell_angle_gamma   90.00000000
_symmetry_Int_Tables_number   1
_chemical_formula_structural   Mo
_chemical_formula_sum   Mo16
_cell_volume   199.88720297
_cell_formula_units_Z   16
loop_
 _symmetry_equiv_pos_site_id
 _symmetry_equiv_pos_as_xyz
  1  'x, y, z'
loop_
 _atom_site_type_symbol
 _atom_site_label
 _atom_site_symmetry_multiplicity
 _atom_site_fract_x
 _atom_site_fract_y
 _atom_site_fract_z
 _atom_site_occupancy
  Mo  Mo0  1  1.96557000  2.31424000  0.29988500  1
  Mo  Mo1  1  1.96699000  0.58881700  2.02642000  1
  Mo  Mo2  1  -0.11787400  2.32152000  2.02548000  1
  Mo  Mo3  1  4.06321000  7.51773000  3.74631000  1
  Mo  Mo4  1  4.05154000  2.32704000  2.02510000  1
  Mo  Mo5  1  -0.12774800  4.05527000  3.75213000  1
  Mo  Mo6  1  1.96401000  5.77215000  0.30720700  1
  Mo  Mo7  1  1.95064000  4.04895000  2.01144000  1
  Mo  Mo8  1  -0.11775200  5.78811000  2.03586000  1
  Mo  Mo9  1  4.04989000  4.04487000  0.28400100  1
  Mo  Mo10  1  4.04257000  5.78390000  2.03411000  1
  Mo  Mo11  1  8.22430000  7.51077000  3.75417000  1
  Mo  Mo12  1  6.14538000  2.32388000  0.30073000  1
  Mo  Mo13  1  6.12485000  0.58071000  2.02242000  1
  Mo  Mo14  1  6.13810000  5.77502000  0.30720000  1
  Mo  Mo15  1  6.13129000  4.04703000  2.00756000  1
