# generated using pymatgen
data_Mo
_symmetry_space_group_name_H-M   'P 1'
_cell_length_a   7.89960530
_cell_length_b   7.05545002
_cell_length_c   3.52824330
_cell_angle_alpha   90.00000000
_cell_angle_beta   90.00000000
_cell_angle_gamma   90.00000000
_symmetry_Int_Tables_number   1
_chemical_formula_structural   Mo
_chemical_formula_sum   Mo16
_cell_volume   196.64759442
_cell_formula_units_Z   16
loop_
 _symmetry_equiv_pos_site_id
 _symmetry_equiv_pos_as_xyz
  1  'x, y, z'
loop_
 _atom_site_type_symbol
 _atom_site_label
 _atom_site_symmetry_multiplicity
 _atom_site_fract_x
 _atom_site_fract_y
 _atom_site_fract_z
 _atom_site_occupancy
  Mo  Mo0  1  0.11244700  7.57297000  3.78714000  1
  Mo  Mo1  1  2.08609000  2.28819000  0.26441900  1
  Mo  Mo2  1  2.07264000  0.52346100  2.01965000  1
  Mo  Mo3  1  0.09978390  2.28133000  2.02716000  1
  Mo  Mo4  1  4.05293000  7.57718000  3.79098000  1
  Mo  Mo5  1  6.02862000  2.28979000  0.26367500  1
  Mo  Mo6  1  6.01907000  0.52295000  2.01977000  1
  Mo  Mo7  1  4.05465000  2.27796000  2.02655000  1
  Mo  Mo8  1  7.99617000  4.04557000  0.27098900  1
  Mo  Mo9  1  2.07922000  5.81690000  0.25010300  1
  Mo  Mo10  1  2.06706000  4.05582000  2.02741000  1
  Mo  Mo11  1  0.09734410  5.81349000  2.01114000  1
  Mo  Mo12  1  4.03856000  4.04336000  0.27448500  1
  Mo  Mo13  1  6.02394000  5.82018000  3.78639000  1
  Mo  Mo14  1  6.02065000  4.05217000  2.02858000  1
  Mo  Mo15  1  4.05122000  5.81869000  2.02334000  1
