# generated using pymatgen
data_Mo
_symmetry_space_group_name_H-M   'P 1'
_cell_length_a   7.76714467
_cell_length_b   7.09859622
_cell_length_c   3.54892325
_cell_angle_alpha   90.00000000
_cell_angle_beta   90.00000000
_cell_angle_gamma   90.00000000
_symmetry_Int_Tables_number   1
_chemical_formula_structural   Mo
_chemical_formula_sum   Mo16
_cell_volume   195.67280694
_cell_formula_units_Z   16
loop_
 _symmetry_equiv_pos_site_id
 _symmetry_equiv_pos_as_xyz
  1  'x, y, z'
loop_
 _atom_site_type_symbol
 _atom_site_label
 _atom_site_symmetry_multiplicity
 _atom_site_fract_x
 _atom_site_fract_y
 _atom_site_fract_z
 _atom_site_occupancy
  Mo  Mo0  1  0.16357200  7.59094000  3.80942000  1
  Mo  Mo1  1  2.10793000  2.28053000  0.24823200  1
  Mo  Mo2  1  2.10268000  0.50630700  2.02821000  1
  Mo  Mo3  1  0.16286600  2.27045000  2.02427000  1
  Mo  Mo4  1  4.05727000  7.59712000  3.80377000  1
  Mo  Mo5  1  5.99949000  2.28556000  0.24449600  1
  Mo  Mo6  1  5.97624000  0.50206300  2.02409000  1
  Mo  Mo7  1  4.04576000  2.26866000  2.01664000  1
  Mo  Mo8  1  7.92948000  4.04970000  0.26852400  1
  Mo  Mo9  1  2.10970000  5.83292000  0.23612700  1
  Mo  Mo10  1  2.10634000  4.05528000  2.03697000  1
  Mo  Mo11  1  0.17034400  5.81585000  2.00949000  1
  Mo  Mo12  1  4.05349000  4.04106000  0.26289000  1
  Mo  Mo13  1  5.99986000  5.83502000  3.78960000  1
  Mo  Mo14  1  6.00032000  4.05165000  2.03407000  1
  Mo  Mo15  1  4.04750000  5.81690000  2.01429000  1
