# generated using pymatgen
data_Mo
_symmetry_space_group_name_H-M   'P 1'
_cell_length_a   7.74239947
_cell_length_b   7.10635889
_cell_length_c   3.55307603
_cell_angle_alpha   90.00000000
_cell_angle_beta   90.00000000
_cell_angle_gamma   90.00000000
_symmetry_Int_Tables_number   1
_chemical_formula_structural   Mo
_chemical_formula_sum   Mo16
_cell_volume   195.49119982
_cell_formula_units_Z   16
loop_
 _symmetry_equiv_pos_site_id
 _symmetry_equiv_pos_as_xyz
  1  'x, y, z'
loop_
 _atom_site_type_symbol
 _atom_site_label
 _atom_site_symmetry_multiplicity
 _atom_site_fract_x
 _atom_site_fract_y
 _atom_site_fract_z
 _atom_site_occupancy
  Mo  Mo0  1  0.18442100  7.60206000  3.82505000  1
  Mo  Mo1  1  2.11959000  2.28280000  0.23611100  1
  Mo  Mo2  1  2.11916000  0.50103700  2.03482000  1
  Mo  Mo3  1  0.18305600  2.27167000  2.01587000  1
  Mo  Mo4  1  4.06664000  7.59599000  3.81602000  1
  Mo  Mo5  1  5.99504000  2.28679000  0.23305100  1
  Mo  Mo6  1  5.99629000  0.49903300  2.02971000  1
  Mo  Mo7  1  4.04965000  2.26187000  2.01029000  1
  Mo  Mo8  1  7.90310000  4.04216000  0.25369400  1
  Mo  Mo9  1  2.10162000  5.82609000  0.24560200  1
  Mo  Mo10  1  2.10559000  4.06114000  2.02984000  1
  Mo  Mo11  1  0.17246500  5.81230000  2.02092000  1
  Mo  Mo12  1  4.04835000  4.04501000  0.24482200  1
  Mo  Mo13  1  5.99271000  5.83630000  3.80136000  1
  Mo  Mo14  1  5.97769000  4.05131000  2.02559000  1
  Mo  Mo15  1  4.04221000  5.82445000  2.02418000  1
