# generated using pymatgen
data_Mo
_symmetry_space_group_name_H-M   'P 1'
_cell_length_a   8.58083183
_cell_length_b   6.87009090
_cell_length_c   3.41919589
_cell_angle_alpha   90.00000000
_cell_angle_beta   90.00000000
_cell_angle_gamma   90.00000000
_symmetry_Int_Tables_number   1
_chemical_formula_structural   Mo
_chemical_formula_sum   Mo16
_cell_volume   201.56534058
_cell_formula_units_Z   16
loop_
 _symmetry_equiv_pos_site_id
 _symmetry_equiv_pos_as_xyz
  1  'x, y, z'
loop_
 _atom_site_type_symbol
 _atom_site_label
 _atom_site_symmetry_multiplicity
 _atom_site_fract_x
 _atom_site_fract_y
 _atom_site_fract_z
 _atom_site_occupancy
  Mo  Mo0  1  1.90963000  2.33257000  0.30429700  1
  Mo  Mo1  1  1.90242000  0.60464300  2.03376000  1
  Mo  Mo2  1  -0.23774500  2.34086000  2.01195000  1
  Mo  Mo3  1  4.04109000  7.49052000  3.74673000  1
  Mo  Mo4  1  4.04107000  2.34092000  2.00955000  1
  Mo  Mo5  1  -0.23289500  4.05484000  3.73599000  1
  Mo  Mo6  1  1.91599000  5.76040000  0.32002000  1
  Mo  Mo7  1  1.90842000  4.04040000  2.03170000  1
  Mo  Mo8  1  -0.23467300  5.77494000  2.02689000  1
  Mo  Mo9  1  4.06042000  4.05694000  0.30944700  1
  Mo  Mo10  1  4.04313000  5.77094000  2.01181000  1
  Mo  Mo11  1  8.32722000  7.49261000  3.75385000  1
  Mo  Mo12  1  6.19824000  2.33275000  0.30785300  1
  Mo  Mo13  1  6.18454000  0.60515600  2.03277000  1
  Mo  Mo14  1  6.20601000  5.75940000  0.31522600  1
  Mo  Mo15  1  6.18629000  4.04210000  2.02897000  1
