# generated using pymatgen
data_Mo
_symmetry_space_group_name_H-M   'P 1'
_cell_length_a   7.87049325
_cell_length_b   7.06618059
_cell_length_c   3.53208280
_cell_angle_alpha   90.00000000
_cell_angle_beta   90.00000000
_cell_angle_gamma   90.00000000
_symmetry_Int_Tables_number   1
_chemical_formula_structural   Mo
_chemical_formula_sum   Mo16
_cell_volume   196.43440619
_cell_formula_units_Z   16
loop_
 _symmetry_equiv_pos_site_id
 _symmetry_equiv_pos_as_xyz
  1  'x, y, z'
loop_
 _atom_site_type_symbol
 _atom_site_label
 _atom_site_symmetry_multiplicity
 _atom_site_fract_x
 _atom_site_fract_y
 _atom_site_fract_z
 _atom_site_occupancy
  Mo  Mo0  1  0.11156800  7.58560000  3.79473000  1
  Mo  Mo1  1  2.09018000  2.28999000  0.25126000  1
  Mo  Mo2  1  2.06609000  0.52262100  2.02228000  1
  Mo  Mo3  1  0.10993400  2.27018000  2.02434000  1
  Mo  Mo4  1  4.03135000  7.57523000  3.80024000  1
  Mo  Mo5  1  6.01197000  2.28951000  0.25207800  1
  Mo  Mo6  1  6.01279000  0.52046600  2.02479000  1
  Mo  Mo7  1  4.04421000  2.26933000  2.02947000  1
  Mo  Mo8  1  7.99561000  4.03981000  0.26517800  1
  Mo  Mo9  1  2.09609000  5.82115000  0.23839200  1
  Mo  Mo10  1  2.09707000  4.06055000  2.04129000  1
  Mo  Mo11  1  0.11425700  5.80959000  2.00620000  1
  Mo  Mo12  1  4.05133000  4.04891000  0.27083400  1
  Mo  Mo13  1  6.02368000  5.82855000  3.77883000  1
  Mo  Mo14  1  6.01587000  4.05352000  2.04500000  1
  Mo  Mo15  1  4.05752000  5.81501000  2.02301000  1
