# generated using pymatgen
data_Mo
_symmetry_space_group_name_H-M   'P 1'
_cell_length_a   8.19218316
_cell_length_b   6.96866351
_cell_length_c   3.48301888
_cell_angle_alpha   90.00000000
_cell_angle_beta   90.00000000
_cell_angle_gamma   90.00000000
_symmetry_Int_Tables_number   1
_chemical_formula_structural   Mo
_chemical_formula_sum   Mo16
_cell_volume   198.84055939
_cell_formula_units_Z   16
loop_
 _symmetry_equiv_pos_site_id
 _symmetry_equiv_pos_as_xyz
  1  'x, y, z'
loop_
 _atom_site_type_symbol
 _atom_site_label
 _atom_site_symmetry_multiplicity
 _atom_site_fract_x
 _atom_site_fract_y
 _atom_site_fract_z
 _atom_site_occupancy
  Mo  Mo0  1  -0.03364860  7.54150000  3.77717000  1
  Mo  Mo1  1  2.00181000  2.30178000  0.27827600  1
  Mo  Mo2  1  2.01106000  0.55851400  2.03824000  1
  Mo  Mo3  1  -0.04763380  2.31371000  2.01508000  1
  Mo  Mo4  1  4.06002000  7.53919000  3.76885000  1
  Mo  Mo5  1  6.09605000  2.30459000  0.27608100  1
  Mo  Mo6  1  6.11457000  0.55830600  2.03524000  1
  Mo  Mo7  1  4.06262000  2.30699000  2.01117000  1
  Mo  Mo8  1  8.13694000  4.05570000  0.29445400  1
  Mo  Mo9  1  1.98583000  5.79008000  0.28105100  1
  Mo  Mo10  1  1.99005000  4.04470000  2.03235000  1
  Mo  Mo11  1  -0.05576630  5.79367000  2.01935000  1
  Mo  Mo12  1  4.03852000  4.05460000  0.28629900  1
  Mo  Mo13  1  6.09235000  5.79329000  3.76025000  1
  Mo  Mo14  1  6.10258000  4.04125000  2.02946000  1
  Mo  Mo15  1  4.05245000  5.80213000  2.01367000  1
