# generated using pymatgen
data_Mo
_symmetry_space_group_name_H-M   'P 1'
_cell_length_a   7.78606755
_cell_length_b   7.09092551
_cell_length_c   3.54653525
_cell_angle_alpha   90.00000000
_cell_angle_beta   90.00000000
_cell_angle_gamma   90.00000000
_symmetry_Int_Tables_number   1
_chemical_formula_structural   Mo
_chemical_formula_sum   Mo16
_cell_volume   195.80571868
_cell_formula_units_Z   16
loop_
 _symmetry_equiv_pos_site_id
 _symmetry_equiv_pos_as_xyz
  1  'x, y, z'
loop_
 _atom_site_type_symbol
 _atom_site_label
 _atom_site_symmetry_multiplicity
 _atom_site_fract_x
 _atom_site_fract_y
 _atom_site_fract_z
 _atom_site_occupancy
  Mo  Mo0  1  0.16924100  7.60131000  3.80716000  1
  Mo  Mo1  1  2.11658000  2.27152000  0.24768300  1
  Mo  Mo2  1  2.10210000  0.50214700  2.02614000  1
  Mo  Mo3  1  0.15981700  2.28085000  2.01434000  1
  Mo  Mo4  1  4.04578000  7.59497000  3.80679000  1
  Mo  Mo5  1  5.99005000  2.27495000  0.25126500  1
  Mo  Mo6  1  5.99588000  0.49915800  2.02561000  1
  Mo  Mo7  1  4.05303000  2.27413000  2.02165000  1
  Mo  Mo8  1  7.94283000  4.05118000  0.24651800  1
  Mo  Mo9  1  2.10590000  5.81951000  0.25519800  1
  Mo  Mo10  1  2.10484000  4.04925000  2.02704000  1
  Mo  Mo11  1  0.15544200  5.82232000  2.01878000  1
  Mo  Mo12  1  4.03854000  4.05623000  0.24623700  1
  Mo  Mo13  1  5.99293000  5.82949000  3.80591000  1
  Mo  Mo14  1  5.98813000  4.03931000  2.02630000  1
  Mo  Mo15  1  4.05284000  5.83368000  2.02685000  1
