# generated using pymatgen
data_Mo
_symmetry_space_group_name_H-M   'P 1'
_cell_length_a   8.07719042
_cell_length_b   7.00156152
_cell_length_c   3.50093484
_cell_angle_alpha   90.00000000
_cell_angle_beta   90.00000000
_cell_angle_gamma   90.00000000
_symmetry_Int_Tables_number   1
_chemical_formula_structural   Mo
_chemical_formula_sum   Mo16
_cell_volume   197.98817767
_cell_formula_units_Z   16
loop_
 _symmetry_equiv_pos_site_id
 _symmetry_equiv_pos_as_xyz
  1  'x, y, z'
loop_
 _atom_site_type_symbol
 _atom_site_label
 _atom_site_symmetry_multiplicity
 _atom_site_fract_x
 _atom_site_fract_y
 _atom_site_fract_z
 _atom_site_occupancy
  Mo  Mo0  1  0.01527310  7.54756000  3.76985000  1
  Mo  Mo1  1  2.03753000  2.30792000  0.28345500  1
  Mo  Mo2  1  2.05027000  0.54844100  2.02233000  1
  Mo  Mo3  1  0.01845600  2.30551000  2.03819000  1
  Mo  Mo4  1  4.05217000  7.54580000  3.76506000  1
  Mo  Mo5  1  6.06412000  2.30162000  0.27678000  1
  Mo  Mo6  1  6.07891000  0.55683800  2.01974000  1
  Mo  Mo7  1  4.04752000  2.29498000  2.02414000  1
  Mo  Mo8  1  8.08539000  4.04210000  0.28242300  1
  Mo  Mo9  1  2.02604000  5.80159000  0.27487500  1
  Mo  Mo10  1  2.02821000  4.05324000  2.02022000  1
  Mo  Mo11  1  0.00995131  5.79450000  2.03166000  1
  Mo  Mo12  1  4.04719000  4.04535000  0.27780600  1
  Mo  Mo13  1  6.06496000  5.79801000  3.77209000  1
  Mo  Mo14  1  6.05767000  4.05646000  2.01798000  1
  Mo  Mo15  1  4.03914000  5.80010000  2.02246000  1
