# generated using pymatgen
data_Mo
_symmetry_space_group_name_H-M   'P 1'
_cell_length_a   8.08301226
_cell_length_b   7.00142598
_cell_length_c   3.49936152
_cell_angle_alpha   90.00000000
_cell_angle_beta   90.00000000
_cell_angle_gamma   90.00000000
_symmetry_Int_Tables_number   1
_chemical_formula_structural   Mo
_chemical_formula_sum   Mo16
_cell_volume   198.03800853
_cell_formula_units_Z   16
loop_
 _symmetry_equiv_pos_site_id
 _symmetry_equiv_pos_as_xyz
  1  'x, y, z'
loop_
 _atom_site_type_symbol
 _atom_site_label
 _atom_site_symmetry_multiplicity
 _atom_site_fract_x
 _atom_site_fract_y
 _atom_site_fract_z
 _atom_site_occupancy
  Mo  Mo0  1  0.01828830  7.55464000  3.76541000  1
  Mo  Mo1  1  2.03417000  2.29260000  0.28291000  1
  Mo  Mo2  1  2.05067000  0.54480600  2.02439000  1
  Mo  Mo3  1  0.01066950  2.30312000  2.03538000  1
  Mo  Mo4  1  4.05359000  7.55829000  3.76520000  1
  Mo  Mo5  1  6.06708000  2.29345000  0.27609600  1
  Mo  Mo6  1  6.08318000  0.54633300  2.02465000  1
  Mo  Mo7  1  4.05768000  2.30336000  2.02608000  1
  Mo  Mo8  1  8.08672000  4.05477000  0.26302000  1
  Mo  Mo9  1  2.02367000  5.79411000  0.28426500  1
  Mo  Mo10  1  2.02112000  4.04603000  2.01459000  1
  Mo  Mo11  1  0.00259858  5.80854000  2.03598000  1
  Mo  Mo12  1  4.03439000  4.05115000  0.26226600  1
  Mo  Mo13  1  6.05896000  5.78959000  3.78520000  1
  Mo  Mo14  1  6.06975000  4.05018000  2.01584000  1
  Mo  Mo15  1  4.04447000  5.80903000  2.03935000  1
