# generated using pymatgen
data_Mo
_symmetry_space_group_name_H-M   'P 1'
_cell_length_a   7.65506284
_cell_length_b   7.13422132
_cell_length_c   3.56846404
_cell_angle_alpha   90.00000000
_cell_angle_beta   90.00000000
_cell_angle_gamma   90.00000000
_symmetry_Int_Tables_number   1
_chemical_formula_structural   Mo
_chemical_formula_sum   Mo16
_cell_volume   194.88421434
_cell_formula_units_Z   16
loop_
 _symmetry_equiv_pos_site_id
 _symmetry_equiv_pos_as_xyz
  1  'x, y, z'
loop_
 _atom_site_type_symbol
 _atom_site_label
 _atom_site_symmetry_multiplicity
 _atom_site_fract_x
 _atom_site_fract_y
 _atom_site_fract_z
 _atom_site_occupancy
  Mo  Mo0  1  0.21858800  7.62631000  3.80623000  1
  Mo  Mo1  1  2.14478000  2.25985000  0.24919700  1
  Mo  Mo2  1  2.13637000  0.47675200  2.02131000  1
  Mo  Mo3  1  0.22399100  2.27633000  2.03488000  1
  Mo  Mo4  1  4.05473000  7.62339000  3.79847000  1
  Mo  Mo5  1  5.97128000  2.26391000  0.24529200  1
  Mo  Mo6  1  5.95818000  0.47387100  2.01662000  1
  Mo  Mo7  1  4.04506000  2.26682000  2.02718000  1
  Mo  Mo8  1  7.86852000  4.05770000  0.24562800  1
  Mo  Mo9  1  2.13562000  5.82206000  0.23426700  1
  Mo  Mo10  1  2.13168000  4.04752000  2.03782000  1
  Mo  Mo11  1  0.22310900  5.83535000  2.01571000  1
  Mo  Mo12  1  4.05214000  4.05691000  0.23767200  1
  Mo  Mo13  1  5.97672000  5.82859000  3.80691000  1
  Mo  Mo14  1  5.96052000  4.03964000  2.03417000  1
  Mo  Mo15  1  4.04366000  5.84502000  2.02018000  1
