# generated using pymatgen
data_Mo
_symmetry_space_group_name_H-M   'P 1'
_cell_length_a   8.67981356
_cell_length_b   6.84155506
_cell_length_c   3.40829587
_cell_angle_alpha   90.00000000
_cell_angle_beta   90.00000000
_cell_angle_gamma   90.00000000
_symmetry_Int_Tables_number   1
_chemical_formula_structural   Mo
_chemical_formula_sum   Mo16
_cell_volume   202.39627330
_cell_formula_units_Z   16
loop_
 _symmetry_equiv_pos_site_id
 _symmetry_equiv_pos_as_xyz
  1  'x, y, z'
loop_
 _atom_site_type_symbol
 _atom_site_label
 _atom_site_symmetry_multiplicity
 _atom_site_fract_x
 _atom_site_fract_y
 _atom_site_fract_z
 _atom_site_occupancy
  Mo  Mo0  1  1.86959000  2.32591000  0.33134400  1
  Mo  Mo1  1  1.85939000  0.62535900  2.01120000  1
  Mo  Mo2  1  -0.29466000  2.34624000  2.02747000  1
  Mo  Mo3  1  4.04451000  7.47053000  3.72443000  1
  Mo  Mo4  1  4.04538000  2.34921000  2.03408000  1
  Mo  Mo5  1  -0.28906900  4.05361000  3.72087000  1
  Mo  Mo6  1  1.87100000  5.75231000  0.32826000  1
  Mo  Mo7  1  1.90504000  4.04551000  2.02469000  1
  Mo  Mo8  1  -0.28887000  5.77016000  2.02095000  1
  Mo  Mo9  1  4.05929000  4.06038000  0.31158100  1
  Mo  Mo10  1  4.06233000  5.77122000  2.02755000  1
  Mo  Mo11  1  8.38515000  7.47967000  3.72494000  1
  Mo  Mo12  1  6.21037000  2.32974000  0.33471900  1
  Mo  Mo13  1  6.22071000  0.62133100  2.01182000  1
  Mo  Mo14  1  6.22240000  5.76039000  0.33167000  1
  Mo  Mo15  1  6.23764000  4.03841000  2.02611000  1
