# generated using pymatgen
data_Mo
_symmetry_space_group_name_H-M   'P 1'
_cell_length_a   8.36249003
_cell_length_b   6.91554105
_cell_length_c   3.45840812
_cell_angle_alpha   90.00000000
_cell_angle_beta   90.00000000
_cell_angle_gamma   90.00000000
_symmetry_Int_Tables_number   1
_chemical_formula_structural   Mo
_chemical_formula_sum   Mo16
_cell_volume   200.00369471
_cell_formula_units_Z   16
loop_
 _symmetry_equiv_pos_site_id
 _symmetry_equiv_pos_as_xyz
  1  'x, y, z'
loop_
 _atom_site_type_symbol
 _atom_site_label
 _atom_site_symmetry_multiplicity
 _atom_site_fract_x
 _atom_site_fract_y
 _atom_site_fract_z
 _atom_site_occupancy
  Mo  Mo0  1  1.95041000  2.32560000  0.30398700  1
  Mo  Mo1  1  1.94738000  0.60089500  2.01767000  1
  Mo  Mo2  1  -0.13236700  2.32072000  2.02911000  1
  Mo  Mo3  1  4.04152000  7.49312000  3.74908000  1
  Mo  Mo4  1  4.05426000  2.31788000  2.03223000  1
  Mo  Mo5  1  -0.12324900  4.03865000  3.75776000  1
  Mo  Mo6  1  1.95407000  5.78173000  0.29383200  1
  Mo  Mo7  1  1.96121000  4.06138000  2.01480000  1
  Mo  Mo8  1  -0.13338900  5.76954000  2.01967000  1
  Mo  Mo9  1  4.06189000  4.04535000  0.30274700  1
  Mo  Mo10  1  4.06142000  5.77615000  2.03497000  1
  Mo  Mo11  1  8.22488000  7.50253000  3.74562000  1
  Mo  Mo12  1  6.13464000  2.32528000  0.30306200  1
  Mo  Mo13  1  6.15005000  0.59942100  2.01862000  1
  Mo  Mo14  1  6.14476000  5.78905000  0.30121100  1
  Mo  Mo15  1  6.14004000  4.05271000  2.01721000  1
