# generated using pymatgen
data_Mo
_symmetry_space_group_name_H-M   'P 1'
_cell_length_a   8.06700125
_cell_length_b   7.00559169
_cell_length_c   3.50212026
_cell_angle_alpha   90.00000000
_cell_angle_beta   90.00000000
_cell_angle_gamma   90.00000000
_symmetry_Int_Tables_number   1
_chemical_formula_structural   Mo
_chemical_formula_sum   Mo16
_cell_volume   197.91923365
_cell_formula_units_Z   16
loop_
 _symmetry_equiv_pos_site_id
 _symmetry_equiv_pos_as_xyz
  1  'x, y, z'
loop_
 _atom_site_type_symbol
 _atom_site_label
 _atom_site_symmetry_multiplicity
 _atom_site_fract_x
 _atom_site_fract_y
 _atom_site_fract_z
 _atom_site_occupancy
  Mo  Mo0  1  0.01132610  7.55790000  3.78517000  1
  Mo  Mo1  1  2.03109000  2.29752000  0.26755800  1
  Mo  Mo2  1  2.00661000  0.54953800  2.02621000  1
  Mo  Mo3  1  0.01174730  2.29713000  2.01973000  1
  Mo  Mo4  1  4.04803000  7.54856000  3.77901000  1
  Mo  Mo5  1  6.07270000  2.29882000  0.27195200  1
  Mo  Mo6  1  6.05890000  0.54585800  2.02398000  1
  Mo  Mo7  1  4.04471000  2.29486000  2.02641000  1
  Mo  Mo8  1  8.08215000  4.05093000  0.28170700  1
  Mo  Mo9  1  2.03667000  5.80168000  0.26579900  1
  Mo  Mo10  1  2.04251000  4.05256000  2.04224000  1
  Mo  Mo11  1  0.01717630  5.79497000  2.01626000  1
  Mo  Mo12  1  4.05881000  4.05548000  0.27559300  1
  Mo  Mo13  1  6.08043000  5.81102000  3.76472000  1
  Mo  Mo14  1  6.07088000  4.04401000  2.03931000  1
  Mo  Mo15  1  4.05925000  5.79915000  2.01223000  1
