# generated using pymatgen
data_Mo
_symmetry_space_group_name_H-M   'P 1'
_cell_length_a   8.34356715
_cell_length_b   6.92535555
_cell_length_c   3.45923471
_cell_angle_alpha   90.00000000
_cell_angle_beta   90.00000000
_cell_angle_gamma   90.00000000
_symmetry_Int_Tables_number   1
_chemical_formula_structural   Mo
_chemical_formula_sum   Mo16
_cell_volume   199.88208518
_cell_formula_units_Z   16
loop_
 _symmetry_equiv_pos_site_id
 _symmetry_equiv_pos_as_xyz
  1  'x, y, z'
loop_
 _atom_site_type_symbol
 _atom_site_label
 _atom_site_symmetry_multiplicity
 _atom_site_fract_x
 _atom_site_fract_y
 _atom_site_fract_z
 _atom_site_occupancy
  Mo  Mo0  1  1.96469000  2.31556000  0.30169000  1
  Mo  Mo1  1  1.96765000  0.59024400  2.02633000  1
  Mo  Mo2  1  -0.11550100  2.31945000  2.02747000  1
  Mo  Mo3  1  4.06475000  7.51503000  3.74499000  1
  Mo  Mo4  1  4.05428000  2.32646000  2.02348000  1
  Mo  Mo5  1  -0.12836600  4.05202000  3.75293000  1
  Mo  Mo6  1  1.96232000  5.77377000  0.30881300  1
  Mo  Mo7  1  1.94632000  4.05168000  2.00767000  1
  Mo  Mo8  1  -0.11872400  5.78718000  2.03742000  1
  Mo  Mo9  1  4.05096000  4.04282000  0.28375600  1
  Mo  Mo10  1  4.04287000  5.78180000  2.03664000  1
  Mo  Mo11  1  8.22299000  7.51053000  3.75467000  1
  Mo  Mo12  1  6.14753000  2.32535000  0.30005000  1
  Mo  Mo13  1  6.13015000  0.58158100  2.02181000  1
  Mo  Mo14  1  6.13839000  5.77681000  0.30930500  1
  Mo  Mo15  1  6.12612000  4.04974000  2.00373000  1
