# generated using pymatgen
data_Mo
_symmetry_space_group_name_H-M   'P 1'
_cell_length_a   7.81226867
_cell_length_b   7.08332109
_cell_length_c   3.54191446
_cell_angle_alpha   90.00000000
_cell_angle_beta   90.00000000
_cell_angle_gamma   90.00000000
_symmetry_Int_Tables_number   1
_chemical_formula_structural   Mo
_chemical_formula_sum   Mo16
_cell_volume   195.99823881
_cell_formula_units_Z   16
loop_
 _symmetry_equiv_pos_site_id
 _symmetry_equiv_pos_as_xyz
  1  'x, y, z'
loop_
 _atom_site_type_symbol
 _atom_site_label
 _atom_site_symmetry_multiplicity
 _atom_site_fract_x
 _atom_site_fract_y
 _atom_site_fract_z
 _atom_site_occupancy
  Mo  Mo0  1  0.16054100  7.59342000  3.80395000  1
  Mo  Mo1  1  2.10898000  2.27619000  0.24727500  1
  Mo  Mo2  1  2.10621000  0.50623000  2.03927000  1
  Mo  Mo3  1  0.14590700  2.27711000  2.02228000  1
  Mo  Mo4  1  4.05327000  7.59865000  3.79376000  1
  Mo  Mo5  1  6.00179000  2.27934000  0.24516200  1
  Mo  Mo6  1  5.99981000  0.50522500  2.03364000  1
  Mo  Mo7  1  4.05656000  2.27266000  2.01473000  1
  Mo  Mo8  1  7.94994000  4.05627000  0.25442800  1
  Mo  Mo9  1  2.09890000  5.81919000  0.25718800  1
  Mo  Mo10  1  2.09133000  4.04956000  2.02719000  1
  Mo  Mo11  1  0.14199500  5.82297000  2.03271000  1
  Mo  Mo12  1  4.02938000  4.04918000  0.24468500  1
  Mo  Mo13  1  5.99257000  5.82115000  3.79597000  1
  Mo  Mo14  1  6.00198000  4.04768000  2.02158000  1
  Mo  Mo15  1  4.04857000  5.82517000  2.02428000  1
