# generated using pymatgen
data_Mo
_symmetry_space_group_name_H-M   'P 1'
_cell_length_a   8.22275162
_cell_length_b   6.95769048
_cell_length_c   3.47923636
_cell_angle_alpha   90.00000000
_cell_angle_beta   90.00000000
_cell_angle_gamma   90.00000000
_symmetry_Int_Tables_number   1
_chemical_formula_structural   Mo
_chemical_formula_sum   Mo16
_cell_volume   199.05184635
_cell_formula_units_Z   16
loop_
 _symmetry_equiv_pos_site_id
 _symmetry_equiv_pos_as_xyz
  1  'x, y, z'
loop_
 _atom_site_type_symbol
 _atom_site_label
 _atom_site_symmetry_multiplicity
 _atom_site_fract_x
 _atom_site_fract_y
 _atom_site_fract_z
 _atom_site_occupancy
  Mo  Mo0  1  1.99535000  2.30939000  0.28664700  1
  Mo  Mo1  1  1.99366000  0.57241200  2.02133000  1
  Mo  Mo2  1  -0.06292210  2.31047000  2.02794000  1
  Mo  Mo3  1  4.04683000  7.52182000  3.76291000  1
  Mo  Mo4  1  4.05228000  2.30513000  2.02590000  1
  Mo  Mo5  1  -0.06713620  4.04185000  3.75790000  1
  Mo  Mo6  1  1.98964000  5.78932000  0.29728400  1
  Mo  Mo7  1  2.00218000  4.05515000  2.02439000  1
  Mo  Mo8  1  -0.07017460  5.79138000  2.03762000  1
  Mo  Mo9  1  4.04180000  4.05148000  0.27087300  1
  Mo  Mo10  1  4.05398000  5.79354000  2.02302000  1
  Mo  Mo11  1  8.16692000  7.53138000  3.77056000  1
  Mo  Mo12  1  6.10331000  2.30555000  0.28794500  1
  Mo  Mo13  1  6.12344000  0.57516400  2.01731000  1
  Mo  Mo14  1  6.10239000  5.79293000  0.29026600  1
  Mo  Mo15  1  6.10570000  4.05303000  2.01888000  1
