# generated using pymatgen
data_Mo
_symmetry_space_group_name_H-M   'P 1'
_cell_length_a   7.40906444
_cell_length_b   7.22649986
_cell_length_c   3.61196661
_cell_angle_alpha   90.00000000
_cell_angle_beta   90.00000000
_cell_angle_gamma   90.00000000
_symmetry_Int_Tables_number   1
_chemical_formula_structural   Mo
_chemical_formula_sum   Mo16
_cell_volume   193.39048271
_cell_formula_units_Z   16
loop_
 _symmetry_equiv_pos_site_id
 _symmetry_equiv_pos_as_xyz
  1  'x, y, z'
loop_
 _atom_site_type_symbol
 _atom_site_label
 _atom_site_symmetry_multiplicity
 _atom_site_fract_x
 _atom_site_fract_y
 _atom_site_fract_z
 _atom_site_occupancy
  Mo  Mo0  1  0.33567000  7.65925000  3.82855000  1
  Mo  Mo1  1  2.19672000  2.24777000  0.21979400  1
  Mo  Mo2  1  2.18115000  0.44655000  2.01891000  1
  Mo  Mo3  1  0.34815600  2.24202000  2.03226000  1
  Mo  Mo4  1  4.04414000  7.64968000  3.83122000  1
  Mo  Mo5  1  5.90383000  2.24679000  0.21903600  1
  Mo  Mo6  1  5.90247000  0.44641700  2.01877000  1
  Mo  Mo7  1  4.04429000  2.23931000  2.03191000  1
  Mo  Mo8  1  7.75560000  4.03669000  0.20298100  1
  Mo  Mo9  1  2.19972000  5.85754000  0.22526200  1
  Mo  Mo10  1  2.20354000  4.06167000  2.01358000  1
  Mo  Mo11  1  0.34806100  5.84657000  2.03356000  1
  Mo  Mo12  1  4.06345000  4.04717000  0.20560400  1
  Mo  Mo13  1  5.91478000  5.86493000  3.84534000  1
  Mo  Mo14  1  5.89441000  4.05568000  2.01476000  1
  Mo  Mo15  1  4.05495000  5.85195000  2.04648000  1
