# generated using pymatgen
data_Mo
_symmetry_space_group_name_H-M   'P 1'
_cell_length_a   8.51969586
_cell_length_b   6.87036729
_cell_length_c   3.43553281
_cell_angle_alpha   90.00000000
_cell_angle_beta   90.00000000
_cell_angle_gamma   90.00000000
_symmetry_Int_Tables_number   1
_chemical_formula_structural   Mo
_chemical_formula_sum   Mo16
_cell_volume   201.09355270
_cell_formula_units_Z   16
loop_
 _symmetry_equiv_pos_site_id
 _symmetry_equiv_pos_as_xyz
  1  'x, y, z'
loop_
 _atom_site_type_symbol
 _atom_site_label
 _atom_site_symmetry_multiplicity
 _atom_site_fract_x
 _atom_site_fract_y
 _atom_site_fract_z
 _atom_site_occupancy
  Mo  Mo0  1  1.92212000  2.32664000  0.30996000  1
  Mo  Mo1  1  1.92658000  0.60820900  2.02719000  1
  Mo  Mo2  1  -0.20298800  2.33487000  2.01974000  1
  Mo  Mo3  1  4.06301000  7.49334000  3.74802000  1
  Mo  Mo4  1  4.04891000  2.34271000  2.01907000  1
  Mo  Mo5  1  -0.21506900  4.05445000  3.73319000  1
  Mo  Mo6  1  1.92354000  5.76415000  0.31489700  1
  Mo  Mo7  1  1.90804000  4.04196000  2.01433000  1
  Mo  Mo8  1  -0.20410700  5.78445000  2.02419000  1
  Mo  Mo9  1  4.04808000  4.05128000  0.30694300  1
  Mo  Mo10  1  4.04141000  5.77443000  2.03325000  1
  Mo  Mo11  1  8.31361000  7.48630000  3.73869000  1
  Mo  Mo12  1  6.18992000  2.32540000  0.30853400  1
  Mo  Mo13  1  6.17232000  0.60718100  2.02922000  1
  Mo  Mo14  1  6.17766000  5.75568000  0.31968200  1
  Mo  Mo15  1  6.16726000  4.04896000  2.01757000  1
