# generated using pymatgen
data_Mo
_symmetry_space_group_name_H-M   'P 1'
_cell_length_a   8.05244475
_cell_length_b   7.00932437
_cell_length_c   3.50453782
_cell_angle_alpha   90.00000000
_cell_angle_beta   90.00000000
_cell_angle_gamma   90.00000000
_symmetry_Int_Tables_number   1
_chemical_formula_structural   Mo
_chemical_formula_sum   Mo16
_cell_volume   197.80381483
_cell_formula_units_Z   16
loop_
 _symmetry_equiv_pos_site_id
 _symmetry_equiv_pos_as_xyz
  1  'x, y, z'
loop_
 _atom_site_type_symbol
 _atom_site_label
 _atom_site_symmetry_multiplicity
 _atom_site_fract_x
 _atom_site_fract_y
 _atom_site_fract_z
 _atom_site_occupancy
  Mo  Mo0  1  0.02766860  7.54781000  3.77746000  1
  Mo  Mo1  1  2.03225000  2.30004000  0.27071900  1
  Mo  Mo2  1  2.05085000  0.54860300  2.02430000  1
  Mo  Mo3  1  0.02811040  2.29251000  2.02066000  1
  Mo  Mo4  1  4.05258000  7.55669000  3.78542000  1
  Mo  Mo5  1  6.05599000  2.30350000  0.27216300  1
  Mo  Mo6  1  6.06139000  0.54584000  2.02640000  1
  Mo  Mo7  1  4.05145000  2.30215000  2.02358000  1
  Mo  Mo8  1  8.08105000  4.04716000  0.26499900  1
  Mo  Mo9  1  2.03624000  5.80270000  0.27769600  1
  Mo  Mo10  1  2.03773000  4.05193000  2.01151000  1
  Mo  Mo11  1  0.02901140  5.80706000  2.02685000  1
  Mo  Mo12  1  4.04643000  4.04211000  0.27294700  1
  Mo  Mo13  1  6.04820000  5.79808000  3.78884000  1
  Mo  Mo14  1  6.06321000  4.05578000  2.01427000  1
  Mo  Mo15  1  4.04538000  5.79804000  2.03764000  1
