# generated using pymatgen
data_Mo
_symmetry_space_group_name_H-M   'P 1'
_cell_length_a   7.68126349
_cell_length_b   7.12579757
_cell_length_c   3.56370878
_cell_angle_alpha   90.00000000
_cell_angle_beta   90.00000000
_cell_angle_gamma   90.00000000
_symmetry_Int_Tables_number   1
_chemical_formula_structural   Mo
_chemical_formula_sum   Mo16
_cell_volume   195.06005892
_cell_formula_units_Z   16
loop_
 _symmetry_equiv_pos_site_id
 _symmetry_equiv_pos_as_xyz
  1  'x, y, z'
loop_
 _atom_site_type_symbol
 _atom_site_label
 _atom_site_symmetry_multiplicity
 _atom_site_fract_x
 _atom_site_fract_y
 _atom_site_fract_z
 _atom_site_occupancy
  Mo  Mo0  1  0.20313500  7.61944000  3.79700000  1
  Mo  Mo1  1  2.12798000  2.26476000  0.24372800  1
  Mo  Mo2  1  2.11315000  0.47787900  2.02897000  1
  Mo  Mo3  1  0.20935300  2.27320000  2.02195000  1
  Mo  Mo4  1  4.04942000  7.62418000  3.80679000  1
  Mo  Mo5  1  5.97079000  2.26195000  0.24470400  1
  Mo  Mo6  1  5.94554000  0.47982700  2.03242000  1
  Mo  Mo7  1  4.04154000  2.26916000  2.02468000  1
  Mo  Mo8  1  7.89355000  4.05666000  0.23719500  1
  Mo  Mo9  1  2.13552000  5.82445000  0.24055600  1
  Mo  Mo10  1  2.13818000  4.04518000  2.02222000  1
  Mo  Mo11  1  0.22115700  5.83759000  2.01860000  1
  Mo  Mo12  1  4.06071000  4.05552000  0.24717200  1
  Mo  Mo13  1  5.97940000  5.82346000  3.81197000  1
  Mo  Mo14  1  5.97580000  4.04472000  2.02651000  1
  Mo  Mo15  1  4.05350000  5.84199000  2.03184000  1
