# generated using pymatgen
data_Mo
_symmetry_space_group_name_H-M   'P 1'
_cell_length_a   7.54880285
_cell_length_b   7.17153129
_cell_length_c   3.58703065
_cell_angle_alpha   90.00000000
_cell_angle_beta   90.00000000
_cell_angle_gamma   90.00000000
_symmetry_Int_Tables_number   1
_chemical_formula_structural   Mo
_chemical_formula_sum   Mo16
_cell_volume   194.18919814
_cell_formula_units_Z   16
loop_
 _symmetry_equiv_pos_site_id
 _symmetry_equiv_pos_as_xyz
  1  'x, y, z'
loop_
 _atom_site_type_symbol
 _atom_site_label
 _atom_site_symmetry_multiplicity
 _atom_site_fract_x
 _atom_site_fract_y
 _atom_site_fract_z
 _atom_site_occupancy
  Mo  Mo0  1  0.29341400  7.64501000  3.81174000  1
  Mo  Mo1  1  2.17312000  2.26153000  0.24512900  1
  Mo  Mo2  1  2.15167000  0.45394400  2.02275000  1
  Mo  Mo3  1  0.27322900  2.26638000  2.03851000  1
  Mo  Mo4  1  4.06054000  7.63730000  3.80549000  1
  Mo  Mo5  1  5.94965000  2.25294000  0.23586300  1
  Mo  Mo6  1  5.95289000  0.46210600  2.01898000  1
  Mo  Mo7  1  4.05670000  2.26014000  2.02044000  1
  Mo  Mo8  1  7.80974000  4.04864000  0.24119900  1
  Mo  Mo9  1  2.15868000  5.83434000  0.23087400  1
  Mo  Mo10  1  2.15399000  4.04558000  2.02435000  1
  Mo  Mo11  1  0.25963000  5.84544000  2.02454000  1
  Mo  Mo12  1  4.03711000  4.05697000  0.23500300  1
  Mo  Mo13  1  5.93988000  5.83496000  3.81712000  1
  Mo  Mo14  1  5.92752000  4.04775000  2.02174000  1
  Mo  Mo15  1  4.05343000  5.84698000  2.01925000  1
