# generated using pymatgen
data_Mo
_symmetry_space_group_name_H-M   'P 1'
_cell_length_a   8.41343683
_cell_length_b   6.90704751
_cell_length_c   3.44763064
_cell_angle_alpha   90.00000000
_cell_angle_beta   90.00000000
_cell_angle_gamma   90.00000000
_symmetry_Int_Tables_number   1
_chemical_formula_structural   Mo
_chemical_formula_sum   Mo16
_cell_volume   200.34873924
_cell_formula_units_Z   16
loop_
 _symmetry_equiv_pos_site_id
 _symmetry_equiv_pos_as_xyz
  1  'x, y, z'
loop_
 _atom_site_type_symbol
 _atom_site_label
 _atom_site_symmetry_multiplicity
 _atom_site_fract_x
 _atom_site_fract_y
 _atom_site_fract_z
 _atom_site_occupancy
  Mo  Mo0  1  1.94417000  2.32040000  0.31405100  1
  Mo  Mo1  1  1.95963000  0.60150800  2.02011000  1
  Mo  Mo2  1  -0.16176900  2.32124000  2.04355000  1
  Mo  Mo3  1  4.05932000  7.50399000  3.73190000  1
  Mo  Mo4  1  4.06192000  2.32406000  2.02827000  1
  Mo  Mo5  1  -0.16603200  4.05299000  3.74881000  1
  Mo  Mo6  1  1.93717000  5.78123000  0.30231200  1
  Mo  Mo7  1  1.93530000  4.05037000  2.02184000  1
  Mo  Mo8  1  -0.16576200  5.77853000  2.03169000  1
  Mo  Mo9  1  4.03399000  4.04546000  0.29511300  1
  Mo  Mo10  1  4.04954000  5.77074000  2.02870000  1
  Mo  Mo11  1  8.26594000  7.49607000  3.73841000  1
  Mo  Mo12  1  6.15720000  2.32211000  0.30762500  1
  Mo  Mo13  1  6.16769000  0.60021200  2.01641000  1
  Mo  Mo14  1  6.14422000  5.77595000  0.30411200  1
  Mo  Mo15  1  6.16403000  4.05514000  2.01948000  1
