# generated using pymatgen
data_Mo
_symmetry_space_group_name_H-M   'P 1'
_cell_length_a   7.94764023
_cell_length_b   7.04133260
_cell_length_c   3.52045798
_cell_angle_alpha   90.00000000
_cell_angle_beta   90.00000000
_cell_angle_gamma   90.00000000
_symmetry_Int_Tables_number   1
_chemical_formula_structural   Mo
_chemical_formula_sum   Mo16
_cell_volume   197.01179301
_cell_formula_units_Z   16
loop_
 _symmetry_equiv_pos_site_id
 _symmetry_equiv_pos_as_xyz
  1  'x, y, z'
loop_
 _atom_site_type_symbol
 _atom_site_label
 _atom_site_symmetry_multiplicity
 _atom_site_fract_x
 _atom_site_fract_y
 _atom_site_fract_z
 _atom_site_occupancy
  Mo  Mo0  1  0.07173060  7.56559000  3.78448000  1
  Mo  Mo1  1  2.06303000  2.29806000  0.25316900  1
  Mo  Mo2  1  2.05984000  0.53162800  2.03638000  1
  Mo  Mo3  1  0.07646880  2.29045000  2.01942000  1
  Mo  Mo4  1  4.03097000  7.56561000  3.79434000  1
  Mo  Mo5  1  6.01735000  2.28816000  0.25278200  1
  Mo  Mo6  1  6.02890000  0.54117000  2.04036000  1
  Mo  Mo7  1  4.04785000  2.27537000  2.01900000  1
  Mo  Mo8  1  8.03983000  4.04489000  0.26886900  1
  Mo  Mo9  1  2.06594000  5.82023000  0.25314000  1
  Mo  Mo10  1  2.07329000  4.05416000  2.02342000  1
  Mo  Mo11  1  0.08302500  5.79503000  2.02157000  1
  Mo  Mo12  1  4.05891000  4.04917000  0.27880500  1
  Mo  Mo13  1  6.03615000  5.81854000  3.77766000  1
  Mo  Mo14  1  6.04103000  4.05380000  2.02803000  1
  Mo  Mo15  1  4.05806000  5.80815000  2.02814000  1
