# generated using pymatgen
data_Mo
_symmetry_space_group_name_H-M   'P 1'
_cell_length_a   7.58519316
_cell_length_b   7.15912360
_cell_length_c   3.58043313
_cell_angle_alpha   90.00000000
_cell_angle_beta   90.00000000
_cell_angle_gamma   90.00000000
_symmetry_Int_Tables_number   1
_chemical_formula_structural   Mo
_chemical_formula_sum   Mo16
_cell_volume   194.42946093
_cell_formula_units_Z   16
loop_
 _symmetry_equiv_pos_site_id
 _symmetry_equiv_pos_as_xyz
  1  'x, y, z'
loop_
 _atom_site_type_symbol
 _atom_site_label
 _atom_site_symmetry_multiplicity
 _atom_site_fract_x
 _atom_site_fract_y
 _atom_site_fract_z
 _atom_site_occupancy
  Mo  Mo0  1  0.26342400  7.62923000  3.82810000  1
  Mo  Mo1  1  2.15572000  2.25904000  0.23042600  1
  Mo  Mo2  1  2.17914000  0.47237800  2.02695000  1
  Mo  Mo3  1  0.26063100  2.25514000  2.02281000  1
  Mo  Mo4  1  4.05336000  7.63391000  3.81492000  1
  Mo  Mo5  1  5.94540000  2.26766000  0.23174900  1
  Mo  Mo6  1  5.95882000  0.46611400  2.02117000  1
  Mo  Mo7  1  4.05497000  2.25296000  2.02286000  1
  Mo  Mo8  1  7.83890000  4.05400000  0.24847900  1
  Mo  Mo9  1  2.14813000  5.83859000  0.22599100  1
  Mo  Mo10  1  2.14309000  4.05435000  2.04645000  1
  Mo  Mo11  1  0.25190700  5.83855000  2.01660000  1
  Mo  Mo12  1  4.04121000  4.04382000  0.23559200  1
  Mo  Mo13  1  5.93657000  5.84467000  3.80118000  1
  Mo  Mo14  1  5.94262000  4.04802000  2.03967000  1
  Mo  Mo15  1  4.04092000  5.84158000  2.00662000  1
