# generated using pymatgen
data_Mo
_symmetry_space_group_name_H-M   'P 1'
_cell_length_a   7.86903778
_cell_length_b   7.06606978
_cell_length_c   3.53258204
_cell_angle_alpha   90.00000000
_cell_angle_beta   90.00000000
_cell_angle_gamma   90.00000000
_symmetry_Int_Tables_number   1
_chemical_formula_structural   Mo
_chemical_formula_sum   Mo16
_cell_volume   196.42276032
_cell_formula_units_Z   16
loop_
 _symmetry_equiv_pos_site_id
 _symmetry_equiv_pos_as_xyz
  1  'x, y, z'
loop_
 _atom_site_type_symbol
 _atom_site_label
 _atom_site_symmetry_multiplicity
 _atom_site_fract_x
 _atom_site_fract_y
 _atom_site_fract_z
 _atom_site_occupancy
  Mo  Mo0  1  0.11234100  7.58585000  3.79334000  1
  Mo  Mo1  1  2.09051000  2.29193000  0.25154500  1
  Mo  Mo2  1  2.07133000  0.52056200  2.02270000  1
  Mo  Mo3  1  0.11257800  2.27086000  2.02292000  1
  Mo  Mo4  1  4.02952000  7.57579000  3.80086000  1
  Mo  Mo5  1  6.00985000  2.28871000  0.25261400  1
  Mo  Mo6  1  6.01719000  0.52107300  2.02658000  1
  Mo  Mo7  1  4.04504000  2.26935000  2.02861000  1
  Mo  Mo8  1  7.99519000  4.03957000  0.26601800  1
  Mo  Mo9  1  2.09582000  5.82249000  0.23832000  1
  Mo  Mo10  1  2.09675000  4.05867000  2.04089000  1
  Mo  Mo11  1  0.11412100  5.80910000  2.00571000  1
  Mo  Mo12  1  4.05065000  4.04959000  0.27368300  1
  Mo  Mo13  1  6.02073000  5.82795000  3.77766000  1
  Mo  Mo14  1  6.01277000  4.05387000  2.04565000  1
  Mo  Mo15  1  4.05657000  5.81462000  2.02033000  1
