# generated using pymatgen
data_Mo
_symmetry_space_group_name_H-M   'P 1'
_cell_length_a   8.71329200
_cell_length_b   6.81554073
_cell_length_c   3.41296220
_cell_angle_alpha   90.00000000
_cell_angle_beta   90.00000000
_cell_angle_gamma   90.00000000
_symmetry_Int_Tables_number   1
_chemical_formula_structural   Mo
_chemical_formula_sum   Mo16
_cell_volume   202.68147872
_cell_formula_units_Z   16
loop_
 _symmetry_equiv_pos_site_id
 _symmetry_equiv_pos_as_xyz
  1  'x, y, z'
loop_
 _atom_site_type_symbol
 _atom_site_label
 _atom_site_symmetry_multiplicity
 _atom_site_fract_x
 _atom_site_fract_y
 _atom_site_fract_z
 _atom_site_occupancy
  Mo  Mo0  1  1.87024000  2.33913000  0.31894900  1
  Mo  Mo1  1  1.86296000  0.63216300  2.03225000  1
  Mo  Mo2  1  -0.30497900  2.35278000  2.02645000  1
  Mo  Mo3  1  4.05371000  7.46362000  3.72232000  1
  Mo  Mo4  1  4.05970000  2.35345000  2.02017000  1
  Mo  Mo5  1  -0.31006500  4.05933000  3.74485000  1
  Mo  Mo6  1  1.86248000  5.74832000  0.31212200  1
  Mo  Mo7  1  1.87485000  4.04027000  2.03779000  1
  Mo  Mo8  1  -0.31136000  5.76013000  2.02443000  1
  Mo  Mo9  1  4.04172000  4.06376000  0.32540100  1
  Mo  Mo10  1  4.06006000  5.75478000  2.00447000  1
  Mo  Mo11  1  8.41961000  7.46880000  3.72841000  1
  Mo  Mo12  1  6.22439000  2.33232000  0.31881800  1
  Mo  Mo13  1  6.23520000  0.63983000  2.03191000  1
  Mo  Mo14  1  6.21751000  5.74567000  0.30295900  1
  Mo  Mo15  1  6.23069000  4.04563000  2.03574000  1
