# generated using pymatgen
data_Mo
_symmetry_space_group_name_H-M   'P 1'
_cell_length_a   8.34793352
_cell_length_b   6.91789299
_cell_length_c   3.46140575
_cell_angle_alpha   90.00000000
_cell_angle_beta   90.00000000
_cell_angle_gamma   90.00000000
_symmetry_Int_Tables_number   1
_chemical_formula_structural   Mo
_chemical_formula_sum   Mo16
_cell_volume   199.89656590
_cell_formula_units_Z   16
loop_
 _symmetry_equiv_pos_site_id
 _symmetry_equiv_pos_as_xyz
  1  'x, y, z'
loop_
 _atom_site_type_symbol
 _atom_site_label
 _atom_site_symmetry_multiplicity
 _atom_site_fract_x
 _atom_site_fract_y
 _atom_site_fract_z
 _atom_site_occupancy
  Mo  Mo0  1  1.96676000  2.31355000  0.29377600  1
  Mo  Mo1  1  1.96584000  0.58591800  2.02703000  1
  Mo  Mo2  1  -0.12416000  2.32371000  2.02168000  1
  Mo  Mo3  1  4.05591000  7.52149000  3.75274000  1
  Mo  Mo4  1  4.04572000  2.32591000  2.02679000  1
  Mo  Mo5  1  -0.12543300  4.06019000  3.75123000  1
  Mo  Mo6  1  1.96776000  5.77243000  0.29971000  1
  Mo  Mo7  1  1.96264000  4.04329000  2.02420000  1
  Mo  Mo8  1  -0.11809200  5.78821000  2.02970000  1
  Mo  Mo9  1  4.04727000  4.05048000  0.28780500  1
  Mo  Mo10  1  4.04348000  5.78564000  2.02555000  1
  Mo  Mo11  1  8.22575000  7.51142000  3.75462000  1
  Mo  Mo12  1  6.13974000  2.31926000  0.29826900  1
  Mo  Mo13  1  6.11962000  0.58195000  2.02544000  1
  Mo  Mo14  1  6.13674000  5.77270000  0.29812300  1
  Mo  Mo15  1  6.14251000  4.04386000  2.02194000  1
