# generated using pymatgen
data_Mo
_symmetry_space_group_name_H-M   'P 1'
_cell_length_a   8.50805123
_cell_length_b   6.87389684
_cell_length_c   3.43696380
_cell_angle_alpha   90.00000000
_cell_angle_beta   90.00000000
_cell_angle_gamma   90.00000000
_symmetry_Int_Tables_number   1
_chemical_formula_structural   Mo
_chemical_formula_sum   Mo16
_cell_volume   201.00555689
_cell_formula_units_Z   16
loop_
 _symmetry_equiv_pos_site_id
 _symmetry_equiv_pos_as_xyz
  1  'x, y, z'
loop_
 _atom_site_type_symbol
 _atom_site_label
 _atom_site_symmetry_multiplicity
 _atom_site_fract_x
 _atom_site_fract_y
 _atom_site_fract_z
 _atom_site_occupancy
  Mo  Mo0  1  1.91949000  2.33645000  0.30460300  1
  Mo  Mo1  1  1.91019000  0.61940900  2.01855000  1
  Mo  Mo2  1  -0.21295100  2.32590000  2.02890000  1
  Mo  Mo3  1  4.03836000  7.48081000  3.74173000  1
  Mo  Mo4  1  4.04930000  2.32248000  2.03690000  1
  Mo  Mo5  1  -0.19617700  4.04471000  3.74817000  1
  Mo  Mo6  1  1.92304000  5.77541000  0.29719400  1
  Mo  Mo7  1  1.93264000  4.05621000  2.03344000  1
  Mo  Mo8  1  -0.20401500  5.75516000  2.02156000  1
  Mo  Mo9  1  4.05513000  4.04663000  0.31239300  1
  Mo  Mo10  1  4.05943000  5.76260000  2.02226000  1
  Mo  Mo11  1  8.29567000  7.48408000  3.74044000  1
  Mo  Mo12  1  6.17066000  2.33813000  0.30736900  1
  Mo  Mo13  1  6.17410000  0.61946400  2.02057000  1
  Mo  Mo14  1  6.18490000  5.77937000  0.29518400  1
  Mo  Mo15  1  6.19220000  4.05318000  2.03377000  1
