# generated using pymatgen
data_Mo
_symmetry_space_group_name_H-M   'P 1'
_cell_length_a   8.67690170
_cell_length_b   6.83742267
_cell_length_c   3.41111803
_cell_angle_alpha   90.00000000
_cell_angle_beta   90.00000000
_cell_angle_gamma   90.00000000
_symmetry_Int_Tables_number   1
_chemical_formula_structural   Mo
_chemical_formula_sum   Mo16
_cell_volume   202.37359741
_cell_formula_units_Z   16
loop_
 _symmetry_equiv_pos_site_id
 _symmetry_equiv_pos_as_xyz
  1  'x, y, z'
loop_
 _atom_site_type_symbol
 _atom_site_label
 _atom_site_symmetry_multiplicity
 _atom_site_fract_x
 _atom_site_fract_y
 _atom_site_fract_z
 _atom_site_occupancy
  Mo  Mo0  1  1.87092000  2.32717000  0.32882700  1
  Mo  Mo1  1  1.86234000  0.62945200  2.01534000  1
  Mo  Mo2  1  -0.29841800  2.34661000  2.03064000  1
  Mo  Mo3  1  4.04158000  7.46997000  3.72618000  1
  Mo  Mo4  1  4.04754000  2.34595000  2.02772000  1
  Mo  Mo5  1  -0.28778500  4.05452000  3.71991000  1
  Mo  Mo6  1  1.87316000  5.75067000  0.32869900  1
  Mo  Mo7  1  1.90447000  4.04777000  2.02026000  1
  Mo  Mo8  1  -0.29207400  5.76687000  2.02671000  1
  Mo  Mo9  1  4.05560000  4.05755000  0.30603900  1
  Mo  Mo10  1  4.06252000  5.77016000  2.03206000  1
  Mo  Mo11  1  8.38291000  7.47613000  3.72861000  1
  Mo  Mo12  1  6.21164000  2.32924000  0.32675000  1
  Mo  Mo13  1  6.22184000  0.62862400  2.01641000  1
  Mo  Mo14  1  6.22157000  5.75592000  0.33225600  1
  Mo  Mo15  1  6.24529000  4.04338000  2.02247000  1
