# generated using pymatgen
data_Mo
_symmetry_space_group_name_H-M   'P 1'
_cell_length_a   7.69581951
_cell_length_b   7.12086815
_cell_length_c   3.56131244
_cell_angle_alpha   90.00000000
_cell_angle_beta   90.00000000
_cell_angle_gamma   90.00000000
_symmetry_Int_Tables_number   1
_chemical_formula_structural   Mo
_chemical_formula_sum   Mo16
_cell_volume   195.16318380
_cell_formula_units_Z   16
loop_
 _symmetry_equiv_pos_site_id
 _symmetry_equiv_pos_as_xyz
  1  'x, y, z'
loop_
 _atom_site_type_symbol
 _atom_site_label
 _atom_site_symmetry_multiplicity
 _atom_site_fract_x
 _atom_site_fract_y
 _atom_site_fract_z
 _atom_site_occupancy
  Mo  Mo0  1  0.20917300  7.60790000  3.80899000  1
  Mo  Mo1  1  2.12881000  2.27036000  0.24554600  1
  Mo  Mo2  1  2.13425000  0.49901200  2.01597000  1
  Mo  Mo3  1  0.20317200  2.27239000  2.03549000  1
  Mo  Mo4  1  4.04664000  7.59921000  3.79732000  1
  Mo  Mo5  1  5.96535000  2.27301000  0.24759000  1
  Mo  Mo6  1  5.99216000  0.49727900  2.01119000  1
  Mo  Mo7  1  4.05595000  2.26256000  2.03725000  1
  Mo  Mo8  1  7.89712000  4.04395000  0.24671700  1
  Mo  Mo9  1  2.11703000  5.82945000  0.24353300  1
  Mo  Mo10  1  2.12432000  4.06040000  2.03361000  1
  Mo  Mo11  1  0.19393300  5.81822000  2.03193000  1
  Mo  Mo12  1  4.04497000  4.04718000  0.23496600  1
  Mo  Mo13  1  5.96858000  5.83964000  3.79899000  1
  Mo  Mo14  1  5.97086000  4.05031000  2.02778000  1
  Mo  Mo15  1  4.05188000  5.82914000  2.02181000  1
