# generated using pymatgen
data_Mo
_symmetry_space_group_name_H-M   'P 1'
_cell_length_a   8.48476101
_cell_length_b   6.87566489
_cell_length_c   3.44261336
_cell_angle_alpha   90.00000000
_cell_angle_beta   90.00000000
_cell_angle_gamma   90.00000000
_symmetry_Int_Tables_number   1
_chemical_formula_structural   Mo
_chemical_formula_sum   Mo16
_cell_volume   200.83646388
_cell_formula_units_Z   16
loop_
 _symmetry_equiv_pos_site_id
 _symmetry_equiv_pos_as_xyz
  1  'x, y, z'
loop_
 _atom_site_type_symbol
 _atom_site_label
 _atom_site_symmetry_multiplicity
 _atom_site_fract_x
 _atom_site_fract_y
 _atom_site_fract_z
 _atom_site_occupancy
  Mo  Mo0  1  1.93162000  2.33044000  0.30425700  1
  Mo  Mo1  1  1.93283000  0.60975000  2.02163000  1
  Mo  Mo2  1  -0.18902000  2.32651000  2.02697000  1
  Mo  Mo3  1  4.07020000  7.49395000  3.74733000  1
  Mo  Mo4  1  4.05652000  2.33144000  2.02696000  1
  Mo  Mo5  1  -0.20726500  4.05458000  3.74408000  1
  Mo  Mo6  1  1.92454000  5.77358000  0.30380300  1
  Mo  Mo7  1  1.90768000  4.04614000  2.02585000  1
  Mo  Mo8  1  -0.19338800  5.77440000  2.02543000  1
  Mo  Mo9  1  4.04303000  4.04556000  0.30327300  1
  Mo  Mo10  1  4.04349000  5.77002000  2.02537000  1
  Mo  Mo11  1  8.29795000  7.48618000  3.74583000  1
  Mo  Mo12  1  6.18852000  2.33094000  0.30309500  1
  Mo  Mo13  1  6.16888000  0.60796300  2.02359000  1
  Mo  Mo14  1  6.17401000  5.76829000  0.30250100  1
  Mo  Mo15  1  6.16564000  4.05026000  2.02742000  1
