# generated using pymatgen
data_Mo
_symmetry_space_group_name_H-M   'P 1'
_cell_length_a   8.45710443
_cell_length_b   6.89666611
_cell_length_c   3.44005752
_cell_angle_alpha   90.00000000
_cell_angle_beta   90.00000000
_cell_angle_gamma   90.00000000
_symmetry_Int_Tables_number   1
_chemical_formula_structural   Mo
_chemical_formula_sum   Mo16
_cell_volume   200.64419441
_cell_formula_units_Z   16
loop_
 _symmetry_equiv_pos_site_id
 _symmetry_equiv_pos_as_xyz
  1  'x, y, z'
loop_
 _atom_site_type_symbol
 _atom_site_label
 _atom_site_symmetry_multiplicity
 _atom_site_fract_x
 _atom_site_fract_y
 _atom_site_fract_z
 _atom_site_occupancy
  Mo  Mo0  1  1.93421000  2.32238000  0.31381300  1
  Mo  Mo1  1  1.93200000  0.59794300  2.02221000  1
  Mo  Mo2  1  -0.17314300  2.32651000  2.03245000  1
  Mo  Mo3  1  4.05698000  7.50218000  3.73399000  1
  Mo  Mo4  1  4.04994000  2.32850000  2.02450000  1
  Mo  Mo5  1  -0.18131600  4.05018000  3.74277000  1
  Mo  Mo6  1  1.93703000  5.77201000  0.31812900  1
  Mo  Mo7  1  1.92613000  4.04707000  2.01164000  1
  Mo  Mo8  1  -0.17718600  5.78425000  2.04086000  1
  Mo  Mo9  1  4.05778000  4.04949000  0.29759800  1
  Mo  Mo10  1  4.04595000  5.77808000  2.02668000  1
  Mo  Mo11  1  8.27440000  7.49945000  3.73946000  1
  Mo  Mo12  1  6.17497000  2.31900000  0.31266600  1
  Mo  Mo13  1  6.16103000  0.60233400  2.02092000  1
  Mo  Mo14  1  6.17038000  5.76822000  0.31282100  1
  Mo  Mo15  1  6.15375000  4.05239000  2.00944000  1
