# generated using pymatgen
data_Mo
_symmetry_space_group_name_H-M   'P 1'
_cell_length_a   8.66234615
_cell_length_b   6.84286845
_cell_length_c   3.41175580
_cell_angle_alpha   90.00000000
_cell_angle_beta   90.00000000
_cell_angle_gamma   90.00000000
_symmetry_Int_Tables_number   1
_chemical_formula_structural   Mo
_chemical_formula_sum   Mo16
_cell_volume   202.23283214
_cell_formula_units_Z   16
loop_
 _symmetry_equiv_pos_site_id
 _symmetry_equiv_pos_as_xyz
  1  'x, y, z'
loop_
 _atom_site_type_symbol
 _atom_site_label
 _atom_site_symmetry_multiplicity
 _atom_site_fract_x
 _atom_site_fract_y
 _atom_site_fract_z
 _atom_site_occupancy
  Mo  Mo0  1  1.88879000  2.35015000  0.31644000  1
  Mo  Mo1  1  1.89797000  0.63390800  2.02581000  1
  Mo  Mo2  1  -0.27383400  2.33125000  2.02464000  1
  Mo  Mo3  1  4.05017000  7.46654000  3.72820000  1
  Mo  Mo4  1  4.05566000  2.33568000  2.02477000  1
  Mo  Mo5  1  -0.27120800  4.04490000  3.74271000  1
  Mo  Mo6  1  1.89191000  5.76657000  0.31881600  1
  Mo  Mo7  1  1.86792000  4.05595000  2.02510000  1
  Mo  Mo8  1  -0.27806100  5.75603000  2.02955000  1
  Mo  Mo9  1  4.04724000  4.03825000  0.32108000  1
  Mo  Mo10  1  4.04242000  5.75014000  2.01810000  1
  Mo  Mo11  1  8.38362000  7.46181000  3.73868000  1
  Mo  Mo12  1  6.21787000  2.35680000  0.31943000  1
  Mo  Mo13  1  6.21069000  0.62825700  2.02171000  1
  Mo  Mo14  1  6.20676000  5.76840000  0.31397400  1
  Mo  Mo15  1  6.19973000  4.05537000  2.01923000  1
