# generated using pymatgen
data_Mo
_symmetry_space_group_name_H-M   'P 1'
_cell_length_a   7.74822178
_cell_length_b   7.10492271
_cell_length_c   3.55194640
_cell_angle_alpha   90.00000000
_cell_angle_beta   90.00000000
_cell_angle_gamma   90.00000000
_symmetry_Int_Tables_number   1
_chemical_formula_structural   Mo
_chemical_formula_sum   Mo16
_cell_volume   195.53648553
_cell_formula_units_Z   16
loop_
 _symmetry_equiv_pos_site_id
 _symmetry_equiv_pos_as_xyz
  1  'x, y, z'
loop_
 _atom_site_type_symbol
 _atom_site_label
 _atom_site_symmetry_multiplicity
 _atom_site_fract_x
 _atom_site_fract_y
 _atom_site_fract_z
 _atom_site_occupancy
  Mo  Mo0  1  0.17917700  7.59750000  3.79981000  1
  Mo  Mo1  1  2.11054000  2.28057000  0.24595700  1
  Mo  Mo2  1  2.11697000  0.49881800  2.02630000  1
  Mo  Mo3  1  0.17305400  2.27621000  2.02022000  1
  Mo  Mo4  1  4.05886000  7.59962000  3.80431000  1
  Mo  Mo5  1  5.98647000  2.27936000  0.25031500  1
  Mo  Mo6  1  5.99143000  0.50147500  2.02794000  1
  Mo  Mo7  1  4.05075000  2.27136000  2.02628000  1
  Mo  Mo8  1  7.91438000  4.04343000  0.24400900  1
  Mo  Mo9  1  2.10197000  5.82533000  0.25738000  1
  Mo  Mo10  1  2.11470000  4.05377000  2.00978000  1
  Mo  Mo11  1  0.17345600  5.82240000  2.03500000  1
  Mo  Mo12  1  4.04526000  4.04479000  0.24875400  1
  Mo  Mo13  1  5.98649000  5.82291000  3.80815000  1
  Mo  Mo14  1  5.99949000  4.05541000  2.01073000  1
  Mo  Mo15  1  4.04877000  5.82704000  2.03313000  1
