# generated using pymatgen
data_Mo
_symmetry_space_group_name_H-M   'P 1'
_cell_length_a   8.52697411
_cell_length_b   6.88572079
_cell_length_c   3.42583752
_cell_angle_alpha   90.00000000
_cell_angle_beta   90.00000000
_cell_angle_gamma   90.00000000
_symmetry_Int_Tables_number   1
_chemical_formula_structural   Mo
_chemical_formula_sum   Mo16
_cell_volume   201.14586724
_cell_formula_units_Z   16
loop_
 _symmetry_equiv_pos_site_id
 _symmetry_equiv_pos_as_xyz
  1  'x, y, z'
loop_
 _atom_site_type_symbol
 _atom_site_label
 _atom_site_symmetry_multiplicity
 _atom_site_fract_x
 _atom_site_fract_y
 _atom_site_fract_z
 _atom_site_occupancy
  Mo  Mo0  1  1.91975000  2.32883000  0.31299000  1
  Mo  Mo1  1  1.93564000  0.60617100  2.02838000  1
  Mo  Mo2  1  -0.20432700  2.33088000  2.02531000  1
  Mo  Mo3  1  4.05355000  7.49345000  3.73002000  1
  Mo  Mo4  1  4.05297000  2.33735000  2.02838000  1
  Mo  Mo5  1  -0.21512700  4.05314000  3.73007000  1
  Mo  Mo6  1  1.91777000  5.76742000  0.32121100  1
  Mo  Mo7  1  1.91095000  4.04686000  2.01613000  1
  Mo  Mo8  1  -0.21639200  5.77511000  2.03738000  1
  Mo  Mo9  1  4.04377000  4.05273000  0.30403200  1
  Mo  Mo10  1  4.04269000  5.76766000  2.03072000  1
  Mo  Mo11  1  8.32215000  7.49562000  3.73043000  1
  Mo  Mo12  1  6.18098000  2.32611000  0.31496700  1
  Mo  Mo13  1  6.19668000  0.60563900  2.03033000  1
  Mo  Mo14  1  6.16852000  5.76496000  0.31618900  1
  Mo  Mo15  1  6.16347000  4.04805000  2.01762000  1
