# generated using pymatgen
data_Mo
_symmetry_space_group_name_H-M   'P 1'
_cell_length_a   7.32463875
_cell_length_b   7.25956878
_cell_length_c   3.62931418
_cell_angle_alpha   90.00000000
_cell_angle_beta   90.00000000
_cell_angle_gamma   90.00000000
_symmetry_Int_Tables_number   1
_chemical_formula_structural   Mo
_chemical_formula_sum   Mo16
_cell_volume   192.98413197
_cell_formula_units_Z   16
loop_
 _symmetry_equiv_pos_site_id
 _symmetry_equiv_pos_as_xyz
  1  'x, y, z'
loop_
 _atom_site_type_symbol
 _atom_site_label
 _atom_site_symmetry_multiplicity
 _atom_site_fract_x
 _atom_site_fract_y
 _atom_site_fract_z
 _atom_site_occupancy
  Mo  Mo0  1  0.39970500  7.67764000  3.83197000  1
  Mo  Mo1  1  2.22430000  2.23715000  0.21983600  1
  Mo  Mo2  1  2.22386000  0.41789500  2.02733000  1
  Mo  Mo3  1  0.38653600  2.23304000  2.03649000  1
  Mo  Mo4  1  4.05700000  7.68264000  3.82861000  1
  Mo  Mo5  1  5.88254000  2.23436000  0.21038800  1
  Mo  Mo6  1  5.88062000  0.42305900  2.02559000  1
  Mo  Mo7  1  4.06031000  2.23279000  2.01879000  1
  Mo  Mo8  1  7.70667000  4.05023000  0.21919800  1
  Mo  Mo9  1  2.21641000  5.86792000  0.20590000  1
  Mo  Mo10  1  2.20975000  4.04693000  2.02674000  1
  Mo  Mo11  1  0.38531200  5.86938000  2.02358000  1
  Mo  Mo12  1  4.03258000  4.04715000  0.21579400  1
  Mo  Mo13  1  5.87364000  5.85886000  3.83488000  1
  Mo  Mo14  1  5.88453000  4.05602000  2.02622000  1
  Mo  Mo15  1  4.05160000  5.86492000  2.01939000  1
