# generated using pymatgen
data_Mo
_symmetry_space_group_name_H-M   'P 1'
_cell_length_a   7.55171424
_cell_length_b   7.17049426
_cell_length_c   3.58648896
_cell_angle_alpha   90.00000000
_cell_angle_beta   90.00000000
_cell_angle_gamma   90.00000000
_symmetry_Int_Tables_number   1
_chemical_formula_structural   Mo
_chemical_formula_sum   Mo16
_cell_volume   194.20666873
_cell_formula_units_Z   16
loop_
 _symmetry_equiv_pos_site_id
 _symmetry_equiv_pos_as_xyz
  1  'x, y, z'
loop_
 _atom_site_type_symbol
 _atom_site_label
 _atom_site_symmetry_multiplicity
 _atom_site_fract_x
 _atom_site_fract_y
 _atom_site_fract_z
 _atom_site_occupancy
  Mo  Mo0  1  0.29301100  7.64862000  3.81759000  1
  Mo  Mo1  1  2.16826000  2.26207000  0.23837400  1
  Mo  Mo2  1  2.15202000  0.44910700  2.03141000  1
  Mo  Mo3  1  0.27512000  2.26624000  2.02600000  1
  Mo  Mo4  1  4.06213000  7.63955000  3.81421000  1
  Mo  Mo5  1  5.94430000  2.25086000  0.23046700  1
  Mo  Mo6  1  5.95245000  0.45986700  2.02989000  1
  Mo  Mo7  1  4.05495000  2.26023000  2.01121000  1
  Mo  Mo8  1  7.81414000  4.05041000  0.24426300  1
  Mo  Mo9  1  2.15423000  5.83505000  0.23058100  1
  Mo  Mo10  1  2.15826000  4.04041000  2.02624000  1
  Mo  Mo11  1  0.26209400  5.84813000  2.02055000  1
  Mo  Mo12  1  4.04097000  4.06133000  0.24107400  1
  Mo  Mo13  1  5.93649000  5.83376000  3.81377000  1
  Mo  Mo14  1  5.92664000  4.04474000  2.02530000  1
  Mo  Mo15  1  4.05321000  5.84964000  2.01257000  1
