# generated using pymatgen
data_Mo
_symmetry_space_group_name_H-M   'P 1'
_cell_length_a   7.34792846
_cell_length_b   7.24913147
_cell_length_c   3.62489510
_cell_angle_alpha   90.00000000
_cell_angle_beta   90.00000000
_cell_angle_gamma   90.00000000
_symmetry_Int_Tables_number   1
_chemical_formula_structural   Mo
_chemical_formula_sum   Mo16
_cell_volume   193.08402277
_cell_formula_units_Z   16
loop_
 _symmetry_equiv_pos_site_id
 _symmetry_equiv_pos_as_xyz
  1  'x, y, z'
loop_
 _atom_site_type_symbol
 _atom_site_label
 _atom_site_symmetry_multiplicity
 _atom_site_fract_x
 _atom_site_fract_y
 _atom_site_fract_z
 _atom_site_occupancy
  Mo  Mo0  1  0.37995000  7.68067000  3.83252000  1
  Mo  Mo1  1  2.20619000  2.24200000  0.20918800  1
  Mo  Mo2  1  2.20496000  0.41507700  2.03840000  1
  Mo  Mo3  1  0.37559400  2.24672000  2.02176000  1
  Mo  Mo4  1  4.05542000  7.68258000  3.83814000  1
  Mo  Mo5  1  5.88432000  2.23191000  0.20470500  1
  Mo  Mo6  1  5.88935000  0.42434900  2.04068000  1
  Mo  Mo7  1  4.05495000  2.23786000  2.01497000  1
  Mo  Mo8  1  7.71746000  4.05470000  0.21683800  1
  Mo  Mo9  1  2.20152000  5.85767000  0.20386100  1
  Mo  Mo10  1  2.21529000  4.04425000  2.02951000  1
  Mo  Mo11  1  0.37623000  5.86034000  2.01843000  1
  Mo  Mo12  1  4.04987000  4.05565000  0.22254600  1
  Mo  Mo13  1  5.88506000  5.85288000  3.83023000  1
  Mo  Mo14  1  5.89767000  4.04779000  2.03266000  1
  Mo  Mo15  1  4.05823000  5.86555000  2.02066000  1
