# generated using pymatgen
data_Mo
_symmetry_space_group_name_H-M   'P 1'
_cell_length_a   8.64487872
_cell_length_b   6.84183621
_cell_length_c   3.41670346
_cell_angle_alpha   90.00000000
_cell_angle_beta   90.00000000
_cell_angle_gamma   90.00000000
_symmetry_Int_Tables_number   1
_chemical_formula_structural   Mo
_chemical_formula_sum   Mo16
_cell_volume   202.08722759
_cell_formula_units_Z   16
loop_
 _symmetry_equiv_pos_site_id
 _symmetry_equiv_pos_as_xyz
  1  'x, y, z'
loop_
 _atom_site_type_symbol
 _atom_site_label
 _atom_site_symmetry_multiplicity
 _atom_site_fract_x
 _atom_site_fract_y
 _atom_site_fract_z
 _atom_site_occupancy
  Mo  Mo0  1  1.89211000  2.33716000  0.30876300  1
  Mo  Mo1  1  1.88427000  0.61689600  2.04142000  1
  Mo  Mo2  1  -0.27366300  2.35076000  2.01132000  1
  Mo  Mo3  1  4.05771000  7.47820000  3.74326000  1
  Mo  Mo4  1  4.04797000  2.33991000  2.01264000  1
  Mo  Mo5  1  -0.28875100  4.05476000  3.73370000  1
  Mo  Mo6  1  1.87805000  5.75810000  0.31018700  1
  Mo  Mo7  1  1.89290000  4.03921000  2.02612000  1
  Mo  Mo8  1  -0.27737200  5.76183000  2.01385000  1
  Mo  Mo9  1  4.04425000  4.06104000  0.32765600  1
  Mo  Mo10  1  4.05187000  5.77368000  2.02692000  1
  Mo  Mo11  1  8.37725000  7.47748000  3.73333000  1
  Mo  Mo12  1  6.21409000  2.33180000  0.30736300  1
  Mo  Mo13  1  6.22015000  0.62244900  2.04234000  1
  Mo  Mo14  1  6.21910000  5.75873000  0.31652700  1
  Mo  Mo15  1  6.21518000  4.03798000  2.02791000  1
