# generated using pymatgen
data_Mo
_symmetry_space_group_name_H-M   'P 1'
_cell_length_a   7.54734740
_cell_length_b   7.17401373
_cell_length_c   3.58653378
_cell_angle_alpha   90.00000000
_cell_angle_beta   90.00000000
_cell_angle_gamma   90.00000000
_symmetry_Int_Tables_number   1
_chemical_formula_structural   Mo
_chemical_formula_sum   Mo16
_cell_volume   194.19206079
_cell_formula_units_Z   16
loop_
 _symmetry_equiv_pos_site_id
 _symmetry_equiv_pos_as_xyz
  1  'x, y, z'
loop_
 _atom_site_type_symbol
 _atom_site_label
 _atom_site_symmetry_multiplicity
 _atom_site_fract_x
 _atom_site_fract_y
 _atom_site_fract_z
 _atom_site_occupancy
  Mo  Mo0  1  0.29151900  7.64285000  3.80966000  1
  Mo  Mo1  1  2.17454000  2.26021000  0.24689700  1
  Mo  Mo2  1  2.15398000  0.45729000  2.01834000  1
  Mo  Mo3  1  0.27320900  2.26488000  2.04367000  1
  Mo  Mo4  1  4.05807000  7.63651000  3.80201000  1
  Mo  Mo5  1  5.95018000  2.25439000  0.23823100  1
  Mo  Mo6  1  5.95203000  0.46288600  2.01359000  1
  Mo  Mo7  1  4.05711000  2.25819000  2.02645000  1
  Mo  Mo8  1  7.80946000  4.04768000  0.23860000  1
  Mo  Mo9  1  2.16086000  5.83531000  0.23111700  1
  Mo  Mo10  1  2.15208000  4.04978000  2.02455000  1
  Mo  Mo11  1  0.26021600  5.84323000  2.02682000  1
  Mo  Mo12  1  4.03707000  4.05351000  0.23091700  1
  Mo  Mo13  1  5.94118000  5.83784000  3.81812000  1
  Mo  Mo14  1  5.92818000  4.04950000  2.02108000  1
  Mo  Mo15  1  4.05295000  5.84595000  2.02341000  1
