# generated using pymatgen
data_Mo
_symmetry_space_group_name_H-M   'P 1'
_cell_length_a   7.96947498
_cell_length_b   7.03588808
_cell_length_c   3.51659226
_cell_angle_alpha   90.00000000
_cell_angle_beta   90.00000000
_cell_angle_gamma   90.00000000
_symmetry_Int_Tables_number   1
_chemical_formula_structural   Mo
_chemical_formula_sum   Mo16
_cell_volume   197.18353589
_cell_formula_units_Z   16
loop_
 _symmetry_equiv_pos_site_id
 _symmetry_equiv_pos_as_xyz
  1  'x, y, z'
loop_
 _atom_site_type_symbol
 _atom_site_label
 _atom_site_symmetry_multiplicity
 _atom_site_fract_x
 _atom_site_fract_y
 _atom_site_fract_z
 _atom_site_occupancy
  Mo  Mo0  1  0.06937360  7.55927000  3.78110000  1
  Mo  Mo1  1  2.05623000  2.30113000  0.26210300  1
  Mo  Mo2  1  2.08515000  0.53561600  2.03248000  1
  Mo  Mo3  1  0.07245980  2.28302000  2.02543000  1
  Mo  Mo4  1  4.06022000  7.57002000  3.78193000  1
  Mo  Mo5  1  6.04124000  2.30090000  0.26133500  1
  Mo  Mo6  1  6.05020000  0.53885700  2.03288000  1
  Mo  Mo7  1  4.05547000  2.28467000  2.02228000  1
  Mo  Mo8  1  8.02970000  4.05065000  0.28436500  1
  Mo  Mo9  1  2.04903000  5.81819000  0.25160900  1
  Mo  Mo10  1  2.04449000  4.05001000  2.03514000  1
  Mo  Mo11  1  0.06568250  5.80084000  2.01935000  1
  Mo  Mo12  1  4.04331000  4.04324000  0.28514900  1
  Mo  Mo13  1  6.03066000  5.80897000  3.76347000  1
  Mo  Mo14  1  6.03845000  4.05866000  2.03465000  1
  Mo  Mo15  1  4.03887000  5.79595000  2.01013000  1
