# generated using pymatgen
data_Mo
_symmetry_space_group_name_H-M   'P 1'
_cell_length_a   7.44982111
_cell_length_b   7.20782998
_cell_length_c   3.60542774
_cell_angle_alpha   90.00000000
_cell_angle_beta   90.00000000
_cell_angle_gamma   90.00000000
_symmetry_Int_Tables_number   1
_chemical_formula_structural   Mo
_chemical_formula_sum   Mo16
_cell_volume   193.60081207
_cell_formula_units_Z   16
loop_
 _symmetry_equiv_pos_site_id
 _symmetry_equiv_pos_as_xyz
  1  'x, y, z'
loop_
 _atom_site_type_symbol
 _atom_site_label
 _atom_site_symmetry_multiplicity
 _atom_site_fract_x
 _atom_site_fract_y
 _atom_site_fract_z
 _atom_site_occupancy
  Mo  Mo0  1  0.31961900  7.66517000  3.84367000  1
  Mo  Mo1  1  2.18761000  2.24105000  0.20330000  1
  Mo  Mo2  1  2.18976000  0.43749500  2.03645000  1
  Mo  Mo3  1  0.31998900  2.25304000  1.99994000  1
  Mo  Mo4  1  4.02823000  7.66288000  3.84721000  1
  Mo  Mo5  1  5.89525000  2.24381000  0.21345100  1
  Mo  Mo6  1  5.91414000  0.43448600  2.03845000  1
  Mo  Mo7  1  4.04447000  2.24490000  2.01839000  1
  Mo  Mo8  1  7.79106000  4.05683000  0.21668500  1
  Mo  Mo9  1  2.19293000  5.84318000  0.22167900  1
  Mo  Mo10  1  2.20068000  4.04818000  2.03378000  1
  Mo  Mo11  1  0.32415700  5.85311000  2.01706000  1
  Mo  Mo12  1  4.05773000  4.05828000  0.22028000  1
  Mo  Mo13  1  5.91168000  5.85374000  3.82806000  1
  Mo  Mo14  1  5.91876000  4.03704000  2.03443000  1
  Mo  Mo15  1  4.05411000  5.86681000  2.02175000  1
