# generated using pymatgen
data_Mo
_symmetry_space_group_name_H-M   'P 1'
_cell_length_a   8.27806480
_cell_length_b   6.94100517
_cell_length_c   3.47095513
_cell_angle_alpha   90.00000000
_cell_angle_beta   90.00000000
_cell_angle_gamma   90.00000000
_symmetry_Int_Tables_number   1
_chemical_formula_structural   Mo
_chemical_formula_sum   Mo16
_cell_volume   199.43445450
_cell_formula_units_Z   16
loop_
 _symmetry_equiv_pos_site_id
 _symmetry_equiv_pos_as_xyz
  1  'x, y, z'
loop_
 _atom_site_type_symbol
 _atom_site_label
 _atom_site_symmetry_multiplicity
 _atom_site_fract_x
 _atom_site_fract_y
 _atom_site_fract_z
 _atom_site_occupancy
  Mo  Mo0  1  1.98051000  2.31184000  0.28320200  1
  Mo  Mo1  1  1.98997000  0.58748200  2.02967000  1
  Mo  Mo2  1  -0.09471520  2.30511000  2.01703000  1
  Mo  Mo3  1  4.03847000  7.52111000  3.76061000  1
  Mo  Mo4  1  4.04877000  2.31142000  2.03091000  1
  Mo  Mo5  1  -0.08084010  4.05168000  3.75333000  1
  Mo  Mo6  1  1.98732000  5.79114000  0.29434000  1
  Mo  Mo7  1  1.98827000  4.05587000  2.01299000  1
  Mo  Mo8  1  -0.08628830  5.78126000  2.03246000  1
  Mo  Mo9  1  4.04410000  4.04223000  0.28673200  1
  Mo  Mo10  1  4.04961000  5.78066000  2.03823000  1
  Mo  Mo11  1  8.18620000  7.51280000  3.75665000  1
  Mo  Mo12  1  6.11142000  2.31905000  0.28976900  1
  Mo  Mo13  1  6.11208000  0.58157900  2.03279000  1
  Mo  Mo14  1  6.11342000  5.79253000  0.29548300  1
  Mo  Mo15  1  6.13365000  4.05423000  2.01485000  1
