# generated using pymatgen
data_Mo
_symmetry_space_group_name_H-M   'P 1'
_cell_length_a   7.52842453
_cell_length_b   7.18146721
_cell_length_c   3.58946824
_cell_angle_alpha   90.00000000
_cell_angle_beta   90.00000000
_cell_angle_gamma   90.00000000
_symmetry_Int_Tables_number   1
_chemical_formula_structural   Mo
_chemical_formula_sum   Mo16
_cell_volume   194.06508099
_cell_formula_units_Z   16
loop_
 _symmetry_equiv_pos_site_id
 _symmetry_equiv_pos_as_xyz
  1  'x, y, z'
loop_
 _atom_site_type_symbol
 _atom_site_label
 _atom_site_symmetry_multiplicity
 _atom_site_fract_x
 _atom_site_fract_y
 _atom_site_fract_z
 _atom_site_occupancy
  Mo  Mo0  1  0.27576600  7.64513000  3.82152000  1
  Mo  Mo1  1  2.15791000  2.25048000  0.21769300  1
  Mo  Mo2  1  2.16343000  0.45141300  2.04180000  1
  Mo  Mo3  1  0.27995000  2.24938000  2.00367000  1
  Mo  Mo4  1  4.04859000  7.65164000  3.83435000  1
  Mo  Mo5  1  5.93219000  2.24806000  0.22189600  1
  Mo  Mo6  1  5.91734000  0.45187200  2.04811000  1
  Mo  Mo7  1  4.03769000  2.26506000  2.01201000  1
  Mo  Mo8  1  7.81915000  4.05910000  0.22952200  1
  Mo  Mo9  1  2.17615000  5.84904000  0.22911400  1
  Mo  Mo10  1  2.18867000  4.03486000  2.02147000  1
  Mo  Mo11  1  0.29485500  5.85929000  2.01960000  1
  Mo  Mo12  1  4.05436000  4.05814000  0.24258200  1
  Mo  Mo13  1  5.93042000  5.83704000  3.81855000  1
  Mo  Mo14  1  5.94811000  4.04682000  2.02721000  1
  Mo  Mo15  1  4.04697000  5.84267000  2.02142000  1
