# generated using pymatgen
data_Mo
_symmetry_space_group_name_H-M   'P 1'
_cell_length_a   8.40906949
_cell_length_b   6.90236109
_cell_length_c   3.45122957
_cell_angle_alpha   90.00000000
_cell_angle_beta   90.00000000
_cell_angle_gamma   90.00000000
_symmetry_Int_Tables_number   1
_chemical_formula_structural   Mo
_chemical_formula_sum   Mo16
_cell_volume   200.31776507
_cell_formula_units_Z   16
loop_
 _symmetry_equiv_pos_site_id
 _symmetry_equiv_pos_as_xyz
  1  'x, y, z'
loop_
 _atom_site_type_symbol
 _atom_site_label
 _atom_site_symmetry_multiplicity
 _atom_site_fract_x
 _atom_site_fract_y
 _atom_site_fract_z
 _atom_site_occupancy
  Mo  Mo0  1  1.94623000  2.31213000  0.30483500  1
  Mo  Mo1  1  1.96115000  0.60096500  2.02992000  1
  Mo  Mo2  1  -0.15562300  2.32445000  2.03018000  1
  Mo  Mo3  1  4.05581000  7.50286000  3.73490000  1
  Mo  Mo4  1  4.05685000  2.33141000  2.02788000  1
  Mo  Mo5  1  -0.16157100  4.05380000  3.74724000  1
  Mo  Mo6  1  1.94253000  5.77009000  0.30452400  1
  Mo  Mo7  1  1.93763000  4.04934000  2.01840000  1
  Mo  Mo8  1  -0.16467100  5.78797000  2.03266000  1
  Mo  Mo9  1  4.04143000  4.05213000  0.28988000  1
  Mo  Mo10  1  4.04478000  5.78051000  2.03352000  1
  Mo  Mo11  1  8.25722000  7.50403000  3.74167000  1
  Mo  Mo12  1  6.15806000  2.31900000  0.30498300  1
  Mo  Mo13  1  6.17408000  0.59280800  2.02643000  1
  Mo  Mo14  1  6.14769000  5.77234000  0.30654700  1
  Mo  Mo15  1  6.14934000  4.04615000  2.01519000  1
