# generated using pymatgen
data_Mo
_symmetry_space_group_name_H-M   'P 1'
_cell_length_a   8.04953383
_cell_length_b   7.00937098
_cell_length_c   3.50535464
_cell_angle_alpha   90.00000000
_cell_angle_beta   90.00000000
_cell_angle_gamma   90.00000000
_symmetry_Int_Tables_number   1
_chemical_formula_structural   Mo
_chemical_formula_sum   Mo16
_cell_volume   197.77971152
_cell_formula_units_Z   16
loop_
 _symmetry_equiv_pos_site_id
 _symmetry_equiv_pos_as_xyz
  1  'x, y, z'
loop_
 _atom_site_type_symbol
 _atom_site_label
 _atom_site_symmetry_multiplicity
 _atom_site_fract_x
 _atom_site_fract_y
 _atom_site_fract_z
 _atom_site_occupancy
  Mo  Mo0  1  0.03254750  7.54843000  3.78754000  1
  Mo  Mo1  1  2.03620000  2.30222000  0.26219000  1
  Mo  Mo2  1  2.04947000  0.55427900  2.02674000  1
  Mo  Mo3  1  0.03054040  2.28587000  2.01740000  1
  Mo  Mo4  1  4.06296000  7.55273000  3.78919000  1
  Mo  Mo5  1  6.06556000  2.31112000  0.26630900  1
  Mo  Mo6  1  6.06330000  0.54569200  2.02642000  1
  Mo  Mo7  1  4.04828000  2.30063000  2.02449000  1
  Mo  Mo8  1  8.06776000  4.04518000  0.27163600  1
  Mo  Mo9  1  2.03616000  5.80406000  0.26902500  1
  Mo  Mo10  1  2.03967000  4.05654000  2.02594000  1
  Mo  Mo11  1  0.02771440  5.80117000  2.02214000  1
  Mo  Mo12  1  4.04100000  4.04152000  0.27342100  1
  Mo  Mo13  1  6.04995000  5.80426000  3.77805000  1
  Mo  Mo14  1  6.05890000  4.05701000  2.02550000  1
  Mo  Mo15  1  4.04045000  5.78928000  2.02866000  1
