# generated using pymatgen
data_Mo
_symmetry_space_group_name_H-M   'P 1'
_cell_length_a   8.42653692
_cell_length_b   6.89754713
_cell_length_c   3.44845128
_cell_angle_alpha   90.00000000
_cell_angle_beta   90.00000000
_cell_angle_gamma   90.00000000
_symmetry_Int_Tables_number   1
_chemical_formula_structural   Mo
_chemical_formula_sum   Mo16
_cell_volume   200.43238712
_cell_formula_units_Z   16
loop_
 _symmetry_equiv_pos_site_id
 _symmetry_equiv_pos_as_xyz
  1  'x, y, z'
loop_
 _atom_site_type_symbol
 _atom_site_label
 _atom_site_symmetry_multiplicity
 _atom_site_fract_x
 _atom_site_fract_y
 _atom_site_fract_z
 _atom_site_occupancy
  Mo  Mo0  1  1.94519000  2.32533000  0.29105300  1
  Mo  Mo1  1  1.93521000  0.60150500  2.03125000  1
  Mo  Mo2  1  -0.16053100  2.32446000  2.01545000  1
  Mo  Mo3  1  4.03745000  7.49756000  3.75347000  1
  Mo  Mo4  1  4.03806000  2.32728000  2.02590000  1
  Mo  Mo5  1  -0.15470000  4.04708000  3.75326000  1
  Mo  Mo6  1  1.95717000  5.76878000  0.29775700  1
  Mo  Mo7  1  1.95341000  4.05274000  2.02919000  1
  Mo  Mo8  1  -0.15660400  5.77402000  2.02456000  1
  Mo  Mo9  1  4.06332000  4.05050000  0.30204300  1
  Mo  Mo10  1  4.04803000  5.77564000  2.02223000  1
  Mo  Mo11  1  8.25057000  7.50306000  3.75623000  1
  Mo  Mo12  1  6.15724000  2.32946000  0.29637700  1
  Mo  Mo13  1  6.14590000  0.59851600  2.03046000  1
  Mo  Mo14  1  6.16607000  5.77719000  0.29508700  1
  Mo  Mo15  1  6.14767000  4.04687000  2.02723000  1
