# generated using pymatgen
data_Mo
_symmetry_space_group_name_H-M   'P 1'
_cell_length_a   7.72202066
_cell_length_b   7.11223820
_cell_length_c   3.55691504
_cell_angle_alpha   90.00000000
_cell_angle_beta   90.00000000
_cell_angle_gamma   90.00000000
_symmetry_Int_Tables_number   1
_chemical_formula_structural   Mo
_chemical_formula_sum   Mo16
_cell_volume   195.34879863
_cell_formula_units_Z   16
loop_
 _symmetry_equiv_pos_site_id
 _symmetry_equiv_pos_as_xyz
  1  'x, y, z'
loop_
 _atom_site_type_symbol
 _atom_site_label
 _atom_site_symmetry_multiplicity
 _atom_site_fract_x
 _atom_site_fract_y
 _atom_site_fract_z
 _atom_site_occupancy
  Mo  Mo0  1  0.18234100  7.59656000  3.79790000  1
  Mo  Mo1  1  2.10812000  2.27337000  0.24772500  1
  Mo  Mo2  1  2.11420000  0.50284500  2.01319000  1
  Mo  Mo3  1  0.17948300  2.27048000  2.02646000  1
  Mo  Mo4  1  4.04370000  7.60426000  3.80191000  1
  Mo  Mo5  1  5.97148000  2.27976000  0.25635200  1
  Mo  Mo6  1  5.96983000  0.49642100  2.01485000  1
  Mo  Mo7  1  4.04933000  2.27106000  2.04120000  1
  Mo  Mo8  1  7.92041000  4.04905000  0.24604500  1
  Mo  Mo9  1  2.11838000  5.82769000  0.24392900  1
  Mo  Mo10  1  2.12822000  4.05738000  2.02512000  1
  Mo  Mo11  1  0.19411300  5.82282000  2.02263000  1
  Mo  Mo12  1  4.05616000  4.04069000  0.24992800  1
  Mo  Mo13  1  5.97913000  5.83017000  3.80285000  1
  Mo  Mo14  1  6.00569000  4.05243000  2.02574000  1
  Mo  Mo15  1  4.05739000  5.82501000  2.02725000  1
