# generated using pymatgen
data_Mo
_symmetry_space_group_name_H-M   'P 1'
_cell_length_a   7.90833901
_cell_length_b   7.05327910
_cell_length_c   3.52663016
_cell_angle_alpha   90.00000000
_cell_angle_beta   90.00000000
_cell_angle_gamma   90.00000000
_symmetry_Int_Tables_number   1
_chemical_formula_structural   Mo
_chemical_formula_sum   Mo16
_cell_volume   196.71445102
_cell_formula_units_Z   16
loop_
 _symmetry_equiv_pos_site_id
 _symmetry_equiv_pos_as_xyz
  1  'x, y, z'
loop_
 _atom_site_type_symbol
 _atom_site_label
 _atom_site_symmetry_multiplicity
 _atom_site_fract_x
 _atom_site_fract_y
 _atom_site_fract_z
 _atom_site_occupancy
  Mo  Mo0  1  0.07991710  7.58401000  3.76560000  1
  Mo  Mo1  1  2.06446000  2.28521000  0.27136600  1
  Mo  Mo2  1  2.06300000  0.51481900  2.01573000  1
  Mo  Mo3  1  0.09322860  2.30043000  2.03172000  1
  Mo  Mo4  1  4.04297000  7.57945000  3.77694000  1
  Mo  Mo5  1  6.02580000  2.27495000  0.27539700  1
  Mo  Mo6  1  6.02974000  0.52349400  2.02208000  1
  Mo  Mo7  1  4.04209000  2.29092000  2.04052000  1
  Mo  Mo8  1  8.00940000  4.05198000  0.24945500  1
  Mo  Mo9  1  2.06969000  5.80275000  0.26667400  1
  Mo  Mo10  1  2.07909000  4.04546000  2.01908000  1
  Mo  Mo11  1  0.09616730  5.81483000  2.03018000  1
  Mo  Mo12  1  4.07223000  4.06010000  0.26051500  1
  Mo  Mo13  1  6.04177000  5.80133000  3.79231000  1
  Mo  Mo14  1  6.02941000  4.04623000  2.02467000  1
  Mo  Mo15  1  4.05269000  5.82405000  2.03114000  1
