# generated using pymatgen
data_Mo
_symmetry_space_group_name_H-M   'P 1'
_cell_length_a   8.10193514
_cell_length_b   6.99494666
_cell_length_c   3.49688601
_cell_angle_alpha   90.00000000
_cell_angle_beta   90.00000000
_cell_angle_gamma   90.00000000
_symmetry_Int_Tables_number   1
_chemical_formula_structural   Mo
_chemical_formula_sum   Mo16
_cell_volume   198.17763673
_cell_formula_units_Z   16
loop_
 _symmetry_equiv_pos_site_id
 _symmetry_equiv_pos_as_xyz
  1  'x, y, z'
loop_
 _atom_site_type_symbol
 _atom_site_label
 _atom_site_symmetry_multiplicity
 _atom_site_fract_x
 _atom_site_fract_y
 _atom_site_fract_z
 _atom_site_occupancy
  Mo  Mo0  1  -0.01329230  7.54030000  3.75795000  1
  Mo  Mo1  1  2.02366000  2.30930000  0.28307500  1
  Mo  Mo2  1  2.02490000  0.55535200  2.01914000  1
  Mo  Mo3  1  -0.00064551  2.30673000  2.03749000  1
  Mo  Mo4  1  4.03830000  7.54346000  3.76302000  1
  Mo  Mo5  1  6.06688000  2.30083000  0.28114800  1
  Mo  Mo6  1  6.06225000  0.56368800  2.02245000  1
  Mo  Mo7  1  4.03856000  2.29655000  2.03522000  1
  Mo  Mo8  1  8.11291000  4.04604000  0.27938300  1
  Mo  Mo9  1  2.03078000  5.80089000  0.27114500  1
  Mo  Mo10  1  2.03313000  4.05552000  2.02124000  1
  Mo  Mo11  1  0.00734210  5.78727000  2.02883000  1
  Mo  Mo12  1  4.06656000  4.04452000  0.28406000  1
  Mo  Mo13  1  6.08235000  5.79711000  3.76712000  1
  Mo  Mo14  1  6.07759000  4.05726000  2.02433000  1
  Mo  Mo15  1  4.04680000  5.79518000  2.02752000  1
