# generated using pymatgen
data_Mo
_symmetry_space_group_name_H-M   'P 1'
_cell_length_a   7.40033075
_cell_length_b   7.22952953
_cell_length_c   3.61391902
_cell_angle_alpha   90.00000000
_cell_angle_beta   90.00000000
_cell_angle_gamma   90.00000000
_symmetry_Int_Tables_number   1
_chemical_formula_structural   Mo
_chemical_formula_sum   Mo16
_cell_volume   193.34795515
_cell_formula_units_Z   16
loop_
 _symmetry_equiv_pos_site_id
 _symmetry_equiv_pos_as_xyz
  1  'x, y, z'
loop_
 _atom_site_type_symbol
 _atom_site_label
 _atom_site_symmetry_multiplicity
 _atom_site_fract_x
 _atom_site_fract_y
 _atom_site_fract_z
 _atom_site_occupancy
  Mo  Mo0  1  0.35160400  7.66968000  3.83931000  1
  Mo  Mo1  1  2.19725000  2.24145000  0.21813300  1
  Mo  Mo2  1  2.21105000  0.42852600  2.03005000  1
  Mo  Mo3  1  0.35707600  2.25613000  2.02185000  1
  Mo  Mo4  1  4.05865000  7.66803000  3.83095000  1
  Mo  Mo5  1  5.90038000  2.24011000  0.21547700  1
  Mo  Mo6  1  5.91452000  0.43219400  2.02700000  1
  Mo  Mo7  1  4.05287000  2.24290000  2.01630000  1
  Mo  Mo8  1  7.73585000  4.05759000  0.23149800  1
  Mo  Mo9  1  2.18371000  5.85057000  0.21148800  1
  Mo  Mo10  1  2.19521000  4.04575000  2.03978000  1
  Mo  Mo11  1  0.34700600  5.85028000  2.01492000  1
  Mo  Mo12  1  4.05002000  4.05653000  0.22317300  1
  Mo  Mo13  1  5.90032000  5.85664000  3.82165000  1
  Mo  Mo14  1  5.89710000  4.03994000  2.03667000  1
  Mo  Mo15  1  4.04705000  5.86368000  2.00783000  1
