# generated using pymatgen
data_Mo
_symmetry_space_group_name_H-M   'P 1'
_cell_length_a   8.32901065
_cell_length_b   6.92574257
_cell_length_c   3.46329665
_cell_angle_alpha   90.00000000
_cell_angle_beta   90.00000000
_cell_angle_gamma   90.00000000
_symmetry_Int_Tables_number   1
_chemical_formula_structural   Mo
_chemical_formula_sum   Mo16
_cell_volume   199.77882524
_cell_formula_units_Z   16
loop_
 _symmetry_equiv_pos_site_id
 _symmetry_equiv_pos_as_xyz
  1  'x, y, z'
loop_
 _atom_site_type_symbol
 _atom_site_label
 _atom_site_symmetry_multiplicity
 _atom_site_fract_x
 _atom_site_fract_y
 _atom_site_fract_z
 _atom_site_occupancy
  Mo  Mo0  1  1.97244000  2.31892000  0.28975100  1
  Mo  Mo1  1  1.96898000  0.58391000  2.02384000  1
  Mo  Mo2  1  -0.11547500  2.32233000  2.02226000  1
  Mo  Mo3  1  4.04487000  7.51118000  3.76112000  1
  Mo  Mo4  1  4.04917000  2.30932000  2.02576000  1
  Mo  Mo5  1  -0.11336500  4.05006000  3.76178000  1
  Mo  Mo6  1  1.96428000  5.78714000  0.28446500  1
  Mo  Mo7  1  1.98065000  4.04851000  2.04103000  1
  Mo  Mo8  1  -0.11631700  5.77530000  2.01585000  1
  Mo  Mo9  1  4.04127000  4.05635000  0.30036900  1
  Mo  Mo10  1  4.05364000  5.78529000  2.01127000  1
  Mo  Mo11  1  8.22528000  7.51600000  3.75939000  1
  Mo  Mo12  1  6.11803000  2.31329000  0.29312300  1
  Mo  Mo13  1  6.13393000  0.58885200  2.02397000  1
  Mo  Mo14  1  6.12473000  5.78861000  0.28244000  1
  Mo  Mo15  1  6.13888000  4.04494000  2.04027000  1
