# generated using pymatgen
data_Mo
_symmetry_space_group_name_H-M   'P 1'
_cell_length_a   8.72057024
_cell_length_b   6.80825841
_cell_length_c   3.41480136
_cell_angle_alpha   90.00000000
_cell_angle_beta   90.00000000
_cell_angle_gamma   90.00000000
_symmetry_Int_Tables_number   1
_chemical_formula_structural   Mo
_chemical_formula_sum   Mo16
_cell_volume   202.74323010
_cell_formula_units_Z   16
loop_
 _symmetry_equiv_pos_site_id
 _symmetry_equiv_pos_as_xyz
  1  'x, y, z'
loop_
 _atom_site_type_symbol
 _atom_site_label
 _atom_site_symmetry_multiplicity
 _atom_site_fract_x
 _atom_site_fract_y
 _atom_site_fract_z
 _atom_site_occupancy
  Mo  Mo0  1  1.87110000  2.34577000  0.32973200  1
  Mo  Mo1  1  1.87419000  0.64374900  2.01820000  1
  Mo  Mo2  1  -0.30573900  2.36099000  2.03154000  1
  Mo  Mo3  1  4.03327000  7.45330000  3.71846000  1
  Mo  Mo4  1  4.04283000  2.35108000  2.02820000  1
  Mo  Mo5  1  -0.30392000  4.05021000  3.73452000  1
  Mo  Mo6  1  1.86489000  5.74041000  0.32543800  1
  Mo  Mo7  1  1.89104000  4.05284000  2.01545000  1
  Mo  Mo8  1  -0.30618200  5.74903000  2.02922000  1
  Mo  Mo9  1  4.05621000  4.04861000  0.31161800  1
  Mo  Mo10  1  4.05063000  5.76136000  2.02841000  1
  Mo  Mo11  1  8.40234000  7.45743000  3.72675000  1
  Mo  Mo12  1  6.21345000  2.34784000  0.32850600  1
  Mo  Mo13  1  6.23531000  0.64373000  2.01821000  1
  Mo  Mo14  1  6.22638000  5.74822000  0.32571400  1
  Mo  Mo15  1  6.23362000  4.04543000  2.01523000  1
