# generated using pymatgen
data_Mo
_symmetry_space_group_name_H-M   'P 1'
_cell_length_a   8.41052496
_cell_length_b   6.90627921
_cell_length_c   3.44890738
_cell_angle_alpha   90.00000000
_cell_angle_beta   90.00000000
_cell_angle_gamma   90.00000000
_symmetry_Int_Tables_number   1
_chemical_formula_structural   Mo
_chemical_formula_sum   Mo16
_cell_volume   200.33128060
_cell_formula_units_Z   16
loop_
 _symmetry_equiv_pos_site_id
 _symmetry_equiv_pos_as_xyz
  1  'x, y, z'
loop_
 _atom_site_type_symbol
 _atom_site_label
 _atom_site_symmetry_multiplicity
 _atom_site_fract_x
 _atom_site_fract_y
 _atom_site_fract_z
 _atom_site_occupancy
  Mo  Mo0  1  1.94524000  2.31310000  0.30964900  1
  Mo  Mo1  1  1.96175000  0.60058900  2.02676000  1
  Mo  Mo2  1  -0.15853200  2.32274000  2.03643000  1
  Mo  Mo3  1  4.05712000  7.50444000  3.73062000  1
  Mo  Mo4  1  4.05916000  2.32877000  2.02918000  1
  Mo  Mo5  1  -0.16391000  4.05375000  3.74642000  1
  Mo  Mo6  1  1.94021000  5.77393000  0.30476800  1
  Mo  Mo7  1  1.93627000  4.05001000  2.01850000  1
  Mo  Mo8  1  -0.16637900  5.78637000  2.03372000  1
  Mo  Mo9  1  4.03802000  4.04987000  0.29088400  1
  Mo  Mo10  1  4.04610000  5.77809000  2.03370000  1
  Mo  Mo11  1  8.25994000  7.50233000  3.73781000  1
  Mo  Mo12  1  6.15844000  2.31891000  0.30747400  1
  Mo  Mo13  1  6.17426000  0.59401000  2.02273000  1
  Mo  Mo14  1  6.14650000  5.77389000  0.30727000  1
  Mo  Mo15  1  6.15527000  4.04920000  2.01518000  1
