# generated using pymatgen
data_Mo
_symmetry_space_group_name_H-M   'P 1'
_cell_length_a   8.27660934
_cell_length_b   6.94301742
_cell_length_c   3.47044301
_cell_angle_alpha   90.00000000
_cell_angle_beta   90.00000000
_cell_angle_gamma   90.00000000
_symmetry_Int_Tables_number   1
_chemical_formula_structural   Mo
_chemical_formula_sum   Mo16
_cell_volume   199.42776810
_cell_formula_units_Z   16
loop_
 _symmetry_equiv_pos_site_id
 _symmetry_equiv_pos_as_xyz
  1  'x, y, z'
loop_
 _atom_site_type_symbol
 _atom_site_label
 _atom_site_symmetry_multiplicity
 _atom_site_fract_x
 _atom_site_fract_y
 _atom_site_fract_z
 _atom_site_occupancy
  Mo  Mo0  1  1.97987000  2.30839000  0.28734700  1
  Mo  Mo1  1  1.99363000  0.58517500  2.02795000  1
  Mo  Mo2  1  -0.09389060  2.30608000  2.02107000  1
  Mo  Mo3  1  4.03907000  7.52298000  3.75480000  1
  Mo  Mo4  1  4.05128000  2.31444000  2.03362000  1
  Mo  Mo5  1  -0.07973130  4.05280000  3.75082000  1
  Mo  Mo6  1  1.98632000  5.79091000  0.29757200  1
  Mo  Mo7  1  1.98520000  4.05287000  2.01163000  1
  Mo  Mo8  1  -0.08831450  5.78585000  2.03654000  1
  Mo  Mo9  1  4.04336000  4.04419000  0.28454600  1
  Mo  Mo10  1  4.04902000  5.78228000  2.03810000  1
  Mo  Mo11  1  8.18637000  7.51496000  3.75091000  1
  Mo  Mo12  1  6.11157000  2.31411000  0.29328000  1
  Mo  Mo13  1  6.11832000  0.58084900  2.03148000  1
  Mo  Mo14  1  6.11079000  5.78973000  0.29620800  1
  Mo  Mo15  1  6.13053000  4.05440000  2.01368000  1
