# generated using pymatgen
data_Mo
_symmetry_space_group_name_H-M   'P 1'
_cell_length_a   8.13686998
_cell_length_b   6.98395866
_cell_length_c   3.49183774
_cell_angle_alpha   90.00000000
_cell_angle_beta   90.00000000
_cell_angle_gamma   90.00000000
_symmetry_Int_Tables_number   1
_chemical_formula_structural   Mo
_chemical_formula_sum   Mo16
_cell_volume   198.43263107
_cell_formula_units_Z   16
loop_
 _symmetry_equiv_pos_site_id
 _symmetry_equiv_pos_as_xyz
  1  'x, y, z'
loop_
 _atom_site_type_symbol
 _atom_site_label
 _atom_site_symmetry_multiplicity
 _atom_site_fract_x
 _atom_site_fract_y
 _atom_site_fract_z
 _atom_site_occupancy
  Mo  Mo0  1  -0.02530750  7.55034000  3.76300000  1
  Mo  Mo1  1  2.00464000  2.29823000  0.28397400  1
  Mo  Mo2  1  2.00625000  0.55136200  2.01954000  1
  Mo  Mo3  1  -0.02655660  2.30469000  2.02945000  1
  Mo  Mo4  1  4.03751000  7.55086000  3.76724000  1
  Mo  Mo5  1  6.07649000  2.29888000  0.28508800  1
  Mo  Mo6  1  6.08474000  0.54823500  2.02022000  1
  Mo  Mo7  1  4.04746000  2.31087000  2.03038000  1
  Mo  Mo8  1  8.12906000  4.05574000  0.27805100  1
  Mo  Mo9  1  2.01937000  5.78983000  0.27113600  1
  Mo  Mo10  1  2.03225000  4.04358000  2.03493000  1
  Mo  Mo11  1  -0.01760440  5.80661000  2.01251000  1
  Mo  Mo12  1  4.05569000  4.05672000  0.28270500  1
  Mo  Mo13  1  6.08032000  5.79090000  3.77001000  1
  Mo  Mo14  1  6.09987000  4.04277000  2.03684000  1
  Mo  Mo15  1  4.05895000  5.80039000  2.02309000  1
