# generated using pymatgen
data_Mo
_symmetry_space_group_name_H-M   'P 1'
_cell_length_a   8.26641922
_cell_length_b   6.94625020
_cell_length_c   3.47185540
_cell_angle_alpha   90.00000000
_cell_angle_beta   90.00000000
_cell_angle_gamma   90.00000000
_symmetry_Int_Tables_number   1
_chemical_formula_structural   Mo
_chemical_formula_sum   Mo16
_cell_volume   199.35607634
_cell_formula_units_Z   16
loop_
 _symmetry_equiv_pos_site_id
 _symmetry_equiv_pos_as_xyz
  1  'x, y, z'
loop_
 _atom_site_type_symbol
 _atom_site_label
 _atom_site_symmetry_multiplicity
 _atom_site_fract_x
 _atom_site_fract_y
 _atom_site_fract_z
 _atom_site_occupancy
  Mo  Mo0  1  1.98314000  2.31001000  0.29606500  1
  Mo  Mo1  1  1.98297000  0.57016900  2.02012000  1
  Mo  Mo2  1  -0.07913830  2.32104000  2.03084000  1
  Mo  Mo3  1  4.06738000  7.52604000  3.76031000  1
  Mo  Mo4  1  4.05611000  2.32298000  2.01876000  1
  Mo  Mo5  1  -0.09444330  4.05264000  3.76818000  1
  Mo  Mo6  1  1.97470000  5.78180000  0.28613100  1
  Mo  Mo7  1  1.96977000  4.03991000  2.03750000  1
  Mo  Mo8  1  -0.08854400  5.79506000  2.01636000  1
  Mo  Mo9  1  4.04657000  4.05736000  0.29103100  1
  Mo  Mo10  1  4.04753000  5.78922000  2.00999000  1
  Mo  Mo11  1  8.19173000  7.52922000  3.76617000  1
  Mo  Mo12  1  6.12698000  2.30880000  0.29115700  1
  Mo  Mo13  1  6.12761000  0.57162700  2.01636000  1
  Mo  Mo14  1  6.11573000  5.77915000  0.28441700  1
  Mo  Mo15  1  6.10551000  4.04498000  2.03475000  1
