# generated using pymatgen
data_Mo
_symmetry_space_group_name_H-M   'P 1'
_cell_length_a   7.63759542
_cell_length_b   7.14160269
_cell_length_c   3.57076383
_cell_angle_alpha   90.00000000
_cell_angle_beta   90.00000000
_cell_angle_gamma   90.00000000
_symmetry_Int_Tables_number   1
_chemical_formula_structural   Mo
_chemical_formula_sum   Mo16
_cell_volume   194.76614170
_cell_formula_units_Z   16
loop_
 _symmetry_equiv_pos_site_id
 _symmetry_equiv_pos_as_xyz
  1  'x, y, z'
loop_
 _atom_site_type_symbol
 _atom_site_label
 _atom_site_symmetry_multiplicity
 _atom_site_fract_x
 _atom_site_fract_y
 _atom_site_fract_z
 _atom_site_occupancy
  Mo  Mo0  1  0.23468900  7.61851000  3.81513000  1
  Mo  Mo1  1  2.13828000  2.27142000  0.22275600  1
  Mo  Mo2  1  2.13142000  0.47994800  2.04240000  1
  Mo  Mo3  1  0.22073400  2.26440000  2.00957000  1
  Mo  Mo4  1  4.04572000  7.61974000  3.82347000  1
  Mo  Mo5  1  5.95638000  2.26582000  0.22624200  1
  Mo  Mo6  1  5.96275000  0.48469100  2.04572000  1
  Mo  Mo7  1  4.04850000  2.26042000  2.01574000  1
  Mo  Mo8  1  7.86896000  4.04824000  0.23858100  1
  Mo  Mo9  1  2.13988000  5.83990000  0.23443200  1
  Mo  Mo10  1  2.15158000  4.05083000  2.02374000  1
  Mo  Mo11  1  0.22479500  5.82501000  2.02413000  1
  Mo  Mo12  1  4.04704000  4.05117000  0.24699700  1
  Mo  Mo13  1  5.95940000  5.83906000  3.80658000  1
  Mo  Mo14  1  5.97554000  4.05202000  2.02677000  1
  Mo  Mo15  1  4.05674000  5.82883000  2.02698000  1
