# generated using pymatgen
data_Mo
_symmetry_space_group_name_H-M   'P 1'
_cell_length_a   8.24021904
_cell_length_b   6.95372128
_cell_length_c   3.47606349
_cell_angle_alpha   90.00000000
_cell_angle_beta   90.00000000
_cell_angle_gamma   90.00000000
_symmetry_Int_Tables_number   1
_chemical_formula_structural   Mo
_chemical_formula_sum   Mo16
_cell_volume   199.17908640
_cell_formula_units_Z   16
loop_
 _symmetry_equiv_pos_site_id
 _symmetry_equiv_pos_as_xyz
  1  'x, y, z'
loop_
 _atom_site_type_symbol
 _atom_site_label
 _atom_site_symmetry_multiplicity
 _atom_site_fract_x
 _atom_site_fract_y
 _atom_site_fract_z
 _atom_site_occupancy
  Mo  Mo0  1  1.98673000  2.30103000  0.27911600  1
  Mo  Mo1  1  1.98624000  0.57236100  2.03008000  1
  Mo  Mo2  1  -0.07814350  2.31332000  2.01517000  1
  Mo  Mo3  1  4.05594000  7.53791000  3.77253000  1
  Mo  Mo4  1  4.04869000  2.32264000  2.02169000  1
  Mo  Mo5  1  -0.07454160  4.06254000  3.76382000  1
  Mo  Mo6  1  1.99100000  5.78199000  0.27642400  1
  Mo  Mo7  1  1.98965000  4.04257000  2.03755000  1
  Mo  Mo8  1  -0.07170690  5.79305000  2.00909000  1
  Mo  Mo9  1  4.04811000  4.05536000  0.29147800  1
  Mo  Mo10  1  4.04863000  5.78772000  2.02273000  1
  Mo  Mo11  1  8.16709000  7.53013000  3.76864000  1
  Mo  Mo12  1  6.11861000  2.31049000  0.28211800  1
  Mo  Mo13  1  6.10421000  0.56355700  2.03050000  1
  Mo  Mo14  1  6.11352000  5.78386000  0.28413300  1
  Mo  Mo15  1  6.12576000  4.04146000  2.03887000  1
