# generated using pymatgen
data_Mo
_symmetry_space_group_name_H-M   'P 1'
_cell_length_a   8.53425236
_cell_length_b   6.84654105
_cell_length_c   3.44351697
_cell_angle_alpha   90.00000000
_cell_angle_beta   90.00000000
_cell_angle_gamma   90.00000000
_symmetry_Int_Tables_number   1
_chemical_formula_structural   Mo
_chemical_formula_sum   Mo16
_cell_volume   201.20507220
_cell_formula_units_Z   16
loop_
 _symmetry_equiv_pos_site_id
 _symmetry_equiv_pos_as_xyz
  1  'x, y, z'
loop_
 _atom_site_type_symbol
 _atom_site_label
 _atom_site_symmetry_multiplicity
 _atom_site_fract_x
 _atom_site_fract_y
 _atom_site_fract_z
 _atom_site_occupancy
  Mo  Mo0  1  1.91795000  2.34338000  0.29729300  1
  Mo  Mo1  1  1.91743000  0.63432500  2.02375000  1
  Mo  Mo2  1  -0.22295300  2.33665000  2.02460000  1
  Mo  Mo3  1  4.04737000  7.46677000  3.74985000  1
  Mo  Mo4  1  4.05357000  2.32536000  2.02321000  1
  Mo  Mo5  1  -0.22359100  4.04696000  3.76125000  1
  Mo  Mo6  1  1.90698000  5.76636000  0.29251100  1
  Mo  Mo7  1  1.92131000  4.05888000  2.04086000  1
  Mo  Mo8  1  -0.22714200  5.74494000  2.01761000  1
  Mo  Mo9  1  4.04147000  4.04715000  0.30704600  1
  Mo  Mo10  1  4.05510000  5.75547000  2.01038000  1
  Mo  Mo11  1  8.32288000  7.47209000  3.76111000  1
  Mo  Mo12  1  6.17915000  2.34534000  0.29976200  1
  Mo  Mo13  1  6.19848000  0.63264100  2.02009000  1
  Mo  Mo14  1  6.18283000  5.77504000  0.29070000  1
  Mo  Mo15  1  6.19493000  4.04866000  2.03646000  1
