# generated using pymatgen
data_Mo
_symmetry_space_group_name_H-M   'P 1'
_cell_length_a   8.61722213
_cell_length_b   6.84343684
_cell_length_c   3.42294097
_cell_angle_alpha   90.00000000
_cell_angle_beta   90.00000000
_cell_angle_gamma   90.00000000
_symmetry_Int_Tables_number   1
_chemical_formula_structural   Mo
_chemical_formula_sum   Mo16
_cell_volume   201.85567367
_cell_formula_units_Z   16
loop_
 _symmetry_equiv_pos_site_id
 _symmetry_equiv_pos_as_xyz
  1  'x, y, z'
loop_
 _atom_site_type_symbol
 _atom_site_label
 _atom_site_symmetry_multiplicity
 _atom_site_fract_x
 _atom_site_fract_y
 _atom_site_fract_z
 _atom_site_occupancy
  Mo  Mo0  1  1.90047000  2.32862000  0.31919500  1
  Mo  Mo1  1  1.88763000  0.62586800  2.03176000  1
  Mo  Mo2  1  -0.25648100  2.34691000  2.02417000  1
  Mo  Mo3  1  4.06811000  7.47783000  3.72719000  1
  Mo  Mo4  1  4.04951000  2.34210000  2.01628000  1
  Mo  Mo5  1  -0.27325200  4.05931000  3.74296000  1
  Mo  Mo6  1  1.88946000  5.75467000  0.31783900  1
  Mo  Mo7  1  1.88666000  4.04435000  2.01964000  1
  Mo  Mo8  1  -0.25718500  5.76393000  2.02500000  1
  Mo  Mo9  1  4.04911000  4.05439000  0.30893500  1
  Mo  Mo10  1  4.04624000  5.76915000  2.02571000  1
  Mo  Mo11  1  8.36035000  7.47819000  3.73818000  1
  Mo  Mo12  1  6.21835000  2.33589000  0.31600600  1
  Mo  Mo13  1  6.19557000  0.61997500  2.02740000  1
  Mo  Mo14  1  6.21484000  5.75974000  0.32053500  1
  Mo  Mo15  1  6.20339000  4.03906000  2.01626000  1
