# generated using pymatgen
data_Mo
_symmetry_space_group_name_H-M   'P 1'
_cell_length_a   8.07136763
_cell_length_b   7.00426310
_cell_length_c   3.50150657
_cell_angle_alpha   90.00000000
_cell_angle_beta   90.00000000
_cell_angle_gamma   90.00000000
_symmetry_Int_Tables_number   1
_chemical_formula_structural   Mo
_chemical_formula_sum   Mo16
_cell_volume   197.95411084
_cell_formula_units_Z   16
loop_
 _symmetry_equiv_pos_site_id
 _symmetry_equiv_pos_as_xyz
  1  'x, y, z'
loop_
 _atom_site_type_symbol
 _atom_site_label
 _atom_site_symmetry_multiplicity
 _atom_site_fract_x
 _atom_site_fract_y
 _atom_site_fract_z
 _atom_site_occupancy
  Mo  Mo0  1  0.01528280  7.55151000  3.78783000  1
  Mo  Mo1  1  2.03173000  2.30735000  0.27098600  1
  Mo  Mo2  1  2.01672000  0.55295500  2.02380000  1
  Mo  Mo3  1  0.01876330  2.29781000  2.02312000  1
  Mo  Mo4  1  4.05627000  7.54103000  3.77814000  1
  Mo  Mo5  1  6.07035000  2.30692000  0.27338000  1
  Mo  Mo6  1  6.06363000  0.55225200  2.01894000  1
  Mo  Mo7  1  4.04398000  2.29240000  2.02325000  1
  Mo  Mo8  1  8.08226000  4.04175000  0.29313700  1
  Mo  Mo9  1  2.03006000  5.80472000  0.26450200  1
  Mo  Mo10  1  2.03828000  4.05731000  2.04058000  1
  Mo  Mo11  1  0.01769260  5.78892000  2.01624000  1
  Mo  Mo12  1  4.05897000  4.04938000  0.28355200  1
  Mo  Mo13  1  6.07451000  5.81263000  3.76090000  1
  Mo  Mo14  1  6.05853000  4.05048000  2.03470000  1
  Mo  Mo15  1  4.05160000  5.79258000  2.00543000  1
