# generated using pymatgen
data_Mo
_symmetry_space_group_name_H-M   'P 1'
_cell_length_a   7.35083988
_cell_length_b   7.24870428
_cell_length_c   3.62376761
_cell_angle_alpha   90.00000000
_cell_angle_beta   90.00000000
_cell_angle_gamma   90.00000000
_symmetry_Int_Tables_number   1
_chemical_formula_structural   Mo
_chemical_formula_sum   Mo16
_cell_volume   193.08906750
_cell_formula_units_Z   16
loop_
 _symmetry_equiv_pos_site_id
 _symmetry_equiv_pos_as_xyz
  1  'x, y, z'
loop_
 _atom_site_type_symbol
 _atom_site_label
 _atom_site_symmetry_multiplicity
 _atom_site_fract_x
 _atom_site_fract_y
 _atom_site_fract_z
 _atom_site_occupancy
  Mo  Mo0  1  0.38530600  7.67591000  3.82826000  1
  Mo  Mo1  1  2.21658000  2.24473000  0.21966100  1
  Mo  Mo2  1  2.20811000  0.42010300  2.02862000  1
  Mo  Mo3  1  0.37539600  2.24493000  2.03330000  1
  Mo  Mo4  1  4.05401000  7.67582000  3.82878000  1
  Mo  Mo5  1  5.88626000  2.23499000  0.21171900  1
  Mo  Mo6  1  5.89229000  0.43013300  2.02890000  1
  Mo  Mo7  1  4.05751000  2.22985000  2.02060000  1
  Mo  Mo8  1  7.71644000  4.04821000  0.21857000  1
  Mo  Mo9  1  2.20336000  5.85985000  0.20727900  1
  Mo  Mo10  1  2.20798000  4.05158000  2.02656000  1
  Mo  Mo11  1  0.37036000  5.85668000  2.02187000  1
  Mo  Mo12  1  4.04191000  4.04898000  0.21914700  1
  Mo  Mo13  1  5.88659000  5.85788000  3.83212000  1
  Mo  Mo14  1  5.89063000  4.05222000  2.02807000  1
  Mo  Mo15  1  4.05643000  5.86813000  2.02277000  1
