# generated using pymatgen
data_Mo
_symmetry_space_group_name_H-M   'P 1'
_cell_length_a   7.50222340
_cell_length_b   7.19112796
_cell_length_c   3.59412003
_cell_angle_alpha   90.00000000
_cell_angle_beta   90.00000000
_cell_angle_gamma   90.00000000
_symmetry_Int_Tables_number   1
_chemical_formula_structural   Mo
_chemical_formula_sum   Mo16
_cell_volume   193.90079301
_cell_formula_units_Z   16
loop_
 _symmetry_equiv_pos_site_id
 _symmetry_equiv_pos_as_xyz
  1  'x, y, z'
loop_
 _atom_site_type_symbol
 _atom_site_label
 _atom_site_symmetry_multiplicity
 _atom_site_fract_x
 _atom_site_fract_y
 _atom_site_fract_z
 _atom_site_occupancy
  Mo  Mo0  1  0.30567800  7.65776000  3.82130000  1
  Mo  Mo1  1  2.17494000  2.24631000  0.22249900  1
  Mo  Mo2  1  2.17476000  0.44560900  2.03523000  1
  Mo  Mo3  1  0.30878500  2.25806000  2.01959000  1
  Mo  Mo4  1  4.05565000  7.64913000  3.82020000  1
  Mo  Mo5  1  5.91949000  2.23948000  0.22492100  1
  Mo  Mo6  1  5.92876000  0.45062700  2.03467000  1
  Mo  Mo7  1  4.04115000  2.25202000  2.02120000  1
  Mo  Mo8  1  7.79515000  4.05591000  0.23904200  1
  Mo  Mo9  1  2.16829000  5.84623000  0.21719500  1
  Mo  Mo10  1  2.19040000  4.04119000  2.04062000  1
  Mo  Mo11  1  0.30226700  5.85060000  2.01704000  1
  Mo  Mo12  1  4.05165000  4.06490000  0.23796100  1
  Mo  Mo13  1  5.91966000  5.84856000  3.80692000  1
  Mo  Mo14  1  5.91557000  4.03988000  2.03913000  1
  Mo  Mo15  1  4.04555000  5.85373000  2.00836000  1
