# generated using pymatgen
data_Mo
_symmetry_space_group_name_H-M   'P 1'
_cell_length_a   8.14705915
_cell_length_b   6.98031104
_cell_length_c   3.49057651
_cell_angle_alpha   90.00000000
_cell_angle_beta   90.00000000
_cell_angle_gamma   90.00000000
_symmetry_Int_Tables_number   1
_chemical_formula_structural   Mo
_chemical_formula_sum   Mo16
_cell_volume   198.50561928
_cell_formula_units_Z   16
loop_
 _symmetry_equiv_pos_site_id
 _symmetry_equiv_pos_as_xyz
  1  'x, y, z'
loop_
 _atom_site_type_symbol
 _atom_site_label
 _atom_site_symmetry_multiplicity
 _atom_site_fract_x
 _atom_site_fract_y
 _atom_site_fract_z
 _atom_site_occupancy
  Mo  Mo0  1  -0.02601880  7.53737000  3.77848000  1
  Mo  Mo1  1  2.01833000  2.31254000  0.27564200  1
  Mo  Mo2  1  2.00969000  0.56067500  2.03217000  1
  Mo  Mo3  1  -0.02296740  2.30605000  2.01959000  1
  Mo  Mo4  1  4.04695000  7.53281000  3.77149000  1
  Mo  Mo5  1  6.08740000  2.30613000  0.27458400  1
  Mo  Mo6  1  6.08723000  0.56814900  2.03090000  1
  Mo  Mo7  1  4.05052000  2.29039000  2.01684000  1
  Mo  Mo8  1  8.12050000  4.04428000  0.28983300  1
  Mo  Mo9  1  2.01080000  5.79956000  0.28249700  1
  Mo  Mo10  1  2.00837000  4.05617000  2.02305000  1
  Mo  Mo11  1  -0.02515210  5.78518000  2.03128000  1
  Mo  Mo12  1  4.05374000  4.04645000  0.28322900  1
  Mo  Mo13  1  6.09806000  5.80158000  3.76358000  1
  Mo  Mo14  1  6.08344000  4.05333000  2.02044000  1
  Mo  Mo15  1  4.05205000  5.79935000  2.01583000  1
