# generated using pymatgen
data_Mo
_symmetry_space_group_name_H-M   'P 1'
_cell_length_a   8.21692883
_cell_length_b   6.96100569
_cell_length_c   3.47947693
_cell_angle_alpha   90.00000000
_cell_angle_beta   90.00000000
_cell_angle_gamma   90.00000000
_symmetry_Int_Tables_number   1
_chemical_formula_structural   Mo
_chemical_formula_sum   Mo16
_cell_volume   199.01942864
_cell_formula_units_Z   16
loop_
 _symmetry_equiv_pos_site_id
 _symmetry_equiv_pos_as_xyz
  1  'x, y, z'
loop_
 _atom_site_type_symbol
 _atom_site_label
 _atom_site_symmetry_multiplicity
 _atom_site_fract_x
 _atom_site_fract_y
 _atom_site_fract_z
 _atom_site_occupancy
  Mo  Mo0  1  1.98874000  2.30033000  0.27215300  1
  Mo  Mo1  1  1.98248000  0.56568500  2.04080000  1
  Mo  Mo2  1  -0.06616190  2.31909000  2.01228000  1
  Mo  Mo3  1  4.04794000  7.53572000  3.77250000  1
  Mo  Mo4  1  4.05063000  2.31050000  2.01423000  1
  Mo  Mo5  1  -0.05679830  4.05829000  3.76281000  1
  Mo  Mo6  1  1.98817000  5.78242000  0.28337800  1
  Mo  Mo7  1  2.00429000  4.04771000  2.03317000  1
  Mo  Mo8  1  -0.06050450  5.78799000  2.02221000  1
  Mo  Mo9  1  4.05469000  4.05898000  0.27806000  1
  Mo  Mo10  1  4.06060000  5.79906000  2.02476000  1
  Mo  Mo11  1  8.15941000  7.53988000  3.77768000  1
  Mo  Mo12  1  6.09723000  2.30235000  0.27301900  1
  Mo  Mo13  1  6.10371000  0.56298700  2.03805000  1
  Mo  Mo14  1  6.10669000  5.79152000  0.28466500  1
  Mo  Mo15  1  6.12196000  4.03748000  2.03075000  1
