# generated using pymatgen
data_Mo
_symmetry_space_group_name_H-M   'P 1'
_cell_length_a   7.95637394
_cell_length_b   7.03909034
_cell_length_c   3.51897979
_cell_angle_alpha   90.00000000
_cell_angle_beta   90.00000000
_cell_angle_gamma   90.00000000
_symmetry_Int_Tables_number   1
_chemical_formula_structural   Mo
_chemical_formula_sum   Mo16
_cell_volume   197.08269717
_cell_formula_units_Z   16
loop_
 _symmetry_equiv_pos_site_id
 _symmetry_equiv_pos_as_xyz
  1  'x, y, z'
loop_
 _atom_site_type_symbol
 _atom_site_label
 _atom_site_symmetry_multiplicity
 _atom_site_fract_x
 _atom_site_fract_y
 _atom_site_fract_z
 _atom_site_occupancy
  Mo  Mo0  1  0.06789840  7.57839000  3.78938000  1
  Mo  Mo1  1  2.06568000  2.28155000  0.27298200  1
  Mo  Mo2  1  2.04419000  0.52588100  2.01953000  1
  Mo  Mo3  1  0.06597760  2.29677000  2.02879000  1
  Mo  Mo4  1  4.04289000  7.56805000  3.78246000  1
  Mo  Mo5  1  6.04395000  2.28132000  0.26862700  1
  Mo  Mo6  1  6.03847000  0.52479700  2.01677000  1
  Mo  Mo7  1  4.04679000  2.29569000  2.02213000  1
  Mo  Mo8  1  8.03012000  4.04914000  0.25273400  1
  Mo  Mo9  1  2.06816000  5.80188000  0.28282900  1
  Mo  Mo10  1  2.06554000  4.04833000  2.01472000  1
  Mo  Mo11  1  0.06764270  5.81987000  2.03541000  1
  Mo  Mo12  1  4.05278000  4.05547000  0.24585400  1
  Mo  Mo13  1  6.05048000  5.80645000  3.80131000  1
  Mo  Mo14  1  6.03785000  4.04492000  2.01283000  1
  Mo  Mo15  1  4.05520000  5.82149000  2.03464000  1
