# generated using pymatgen
data_Mo
_symmetry_space_group_name_H-M   'P 1'
_cell_length_a   8.04225558
_cell_length_b   7.01337284
_cell_length_c   3.50566173
_cell_angle_alpha   90.00000000
_cell_angle_beta   90.00000000
_cell_angle_gamma   90.00000000
_symmetry_Int_Tables_number   1
_chemical_formula_structural   Mo
_chemical_formula_sum   Mo16
_cell_volume   197.73101916
_cell_formula_units_Z   16
loop_
 _symmetry_equiv_pos_site_id
 _symmetry_equiv_pos_as_xyz
  1  'x, y, z'
loop_
 _atom_site_type_symbol
 _atom_site_label
 _atom_site_symmetry_multiplicity
 _atom_site_fract_x
 _atom_site_fract_y
 _atom_site_fract_z
 _atom_site_occupancy
  Mo  Mo0  1  0.03378750  7.55759000  3.78352000  1
  Mo  Mo1  1  2.04482000  2.29774000  0.26765000  1
  Mo  Mo2  1  2.04169000  0.54516300  2.02781000  1
  Mo  Mo3  1  0.03124770  2.29240000  2.02374000  1
  Mo  Mo4  1  4.06574000  7.55514000  3.77674000  1
  Mo  Mo5  1  6.07650000  2.30136000  0.26844400  1
  Mo  Mo6  1  6.06715000  0.54261800  2.02619000  1
  Mo  Mo7  1  4.05249000  2.29575000  2.02527000  1
  Mo  Mo8  1  8.05614000  4.05124000  0.28302700  1
  Mo  Mo9  1  2.03559000  5.80747000  0.26376600  1
  Mo  Mo10  1  2.02582000  4.04984000  2.04132000  1
  Mo  Mo11  1  0.02263190  5.79789000  2.02075000  1
  Mo  Mo12  1  4.04359000  4.05100000  0.27597300  1
  Mo  Mo13  1  6.06614000  5.80806000  3.76213000  1
  Mo  Mo14  1  6.05105000  4.05070000  2.03831000  1
  Mo  Mo15  1  4.04336000  5.79603000  2.00973000  1
