# generated using pymatgen
data_Mo
_symmetry_space_group_name_H-M   'P 1'
_cell_length_a   8.46292722
_cell_length_b   6.87992507
_cell_length_c   3.44676542
_cell_angle_alpha   90.00000000
_cell_angle_beta   90.00000000
_cell_angle_gamma   90.00000000
_symmetry_Int_Tables_number   1
_chemical_formula_structural   Mo
_chemical_formula_sum   Mo16
_cell_volume   200.68552186
_cell_formula_units_Z   16
loop_
 _symmetry_equiv_pos_site_id
 _symmetry_equiv_pos_as_xyz
  1  'x, y, z'
loop_
 _atom_site_type_symbol
 _atom_site_label
 _atom_site_symmetry_multiplicity
 _atom_site_fract_x
 _atom_site_fract_y
 _atom_site_fract_z
 _atom_site_occupancy
  Mo  Mo0  1  1.92969000  2.32738000  0.30098000  1
  Mo  Mo1  1  1.91783000  0.59608800  2.02950000  1
  Mo  Mo2  1  -0.18391600  2.33784000  2.02157000  1
  Mo  Mo3  1  4.05316000  7.49737000  3.75559000  1
  Mo  Mo4  1  4.04555000  2.32691000  2.01133000  1
  Mo  Mo5  1  -0.18213700  4.05576000  3.74098000  1
  Mo  Mo6  1  1.92763000  5.76609000  0.30894500  1
  Mo  Mo7  1  1.94027000  4.04205000  2.02325000  1
  Mo  Mo8  1  -0.17730600  5.77431000  2.02593000  1
  Mo  Mo9  1  4.06200000  4.05699000  0.29294200  1
  Mo  Mo10  1  4.05566000  5.78601000  2.02615000  1
  Mo  Mo11  1  8.27704000  7.49794000  3.75733000  1
  Mo  Mo12  1  6.16429000  2.32173000  0.29486000  1
  Mo  Mo13  1  6.15463000  0.60451600  2.02984000  1
  Mo  Mo14  1  6.17566000  5.76694000  0.30939200  1
  Mo  Mo15  1  6.17701000  4.04207000  2.02465000  1
