# generated using pymatgen
data_Mo
_symmetry_space_group_name_H-M   'P 1'
_cell_length_a   7.72638750
_cell_length_b   7.11272365
_cell_length_c   3.55534196
_cell_angle_alpha   90.00000000
_cell_angle_beta   90.00000000
_cell_angle_gamma   90.00000000
_symmetry_Int_Tables_number   1
_chemical_formula_structural   Mo
_chemical_formula_sum   Mo16
_cell_volume   195.38616066
_cell_formula_units_Z   16
loop_
 _symmetry_equiv_pos_site_id
 _symmetry_equiv_pos_as_xyz
  1  'x, y, z'
loop_
 _atom_site_type_symbol
 _atom_site_label
 _atom_site_symmetry_multiplicity
 _atom_site_fract_x
 _atom_site_fract_y
 _atom_site_fract_z
 _atom_site_occupancy
  Mo  Mo0  1  0.18774000  7.60324000  3.78492000  1
  Mo  Mo1  1  2.11916000  2.26716000  0.26233200  1
  Mo  Mo2  1  2.11510000  0.49195600  2.01072000  1
  Mo  Mo3  1  0.17962900  2.28077000  2.03414000  1
  Mo  Mo4  1  4.03820000  7.60716000  3.78774000  1
  Mo  Mo5  1  5.97215000  2.26352000  0.26714000  1
  Mo  Mo6  1  5.97455000  0.49520600  2.01204000  1
  Mo  Mo7  1  4.04789000  2.27500000  2.04003000  1
  Mo  Mo8  1  7.91779000  4.05213000  0.24899400  1
  Mo  Mo9  1  2.12315000  5.82751000  0.25349000  1
  Mo  Mo10  1  2.13314000  4.04662000  2.01678000  1
  Mo  Mo11  1  0.18820600  5.83199000  2.02985000  1
  Mo  Mo12  1  4.04390000  4.04980000  0.25168600  1
  Mo  Mo13  1  5.97778000  5.82530000  3.80504000  1
  Mo  Mo14  1  5.99907000  4.04750000  2.01695000  1
  Mo  Mo15  1  4.05615000  5.83514000  2.02280000  1
