# generated using pymatgen
data_Mo
_symmetry_space_group_name_H-M   'P 1'
_cell_length_a   7.32172734
_cell_length_b   7.26002142
_cell_length_c   3.62988114
_cell_angle_alpha   90.00000000
_cell_angle_beta   90.00000000
_cell_angle_gamma   90.00000000
_symmetry_Int_Tables_number   1
_chemical_formula_structural   Mo
_chemical_formula_sum   Mo16
_cell_volume   192.94958919
_cell_formula_units_Z   16
loop_
 _symmetry_equiv_pos_site_id
 _symmetry_equiv_pos_as_xyz
  1  'x, y, z'
loop_
 _atom_site_type_symbol
 _atom_site_label
 _atom_site_symmetry_multiplicity
 _atom_site_fract_x
 _atom_site_fract_y
 _atom_site_fract_z
 _atom_site_occupancy
  Mo  Mo0  1  0.39889300  7.68672000  3.84184000  1
  Mo  Mo1  1  2.22227000  2.23572000  0.21735200  1
  Mo  Mo2  1  2.22765000  0.41228200  2.02875000  1
  Mo  Mo3  1  0.38705500  2.23711000  2.02984000  1
  Mo  Mo4  1  4.05611000  7.68559000  3.83444000  1
  Mo  Mo5  1  5.88356000  2.23506000  0.20895400  1
  Mo  Mo6  1  5.89709000  0.41413000  2.02470000  1
  Mo  Mo7  1  4.06129000  2.23856000  2.01299000  1
  Mo  Mo8  1  7.70157000  4.05304000  0.22665600  1
  Mo  Mo9  1  2.21248000  5.86083000  0.20135600  1
  Mo  Mo10  1  2.21128000  4.04321000  2.03725000  1
  Mo  Mo11  1  0.37941700  5.87217000  2.01275000  1
  Mo  Mo12  1  4.03315000  4.05395000  0.21930100  1
  Mo  Mo13  1  5.87301000  5.85692000  3.83124000  1
  Mo  Mo14  1  5.88240000  4.04807000  2.03434000  1
  Mo  Mo15  1  4.05105000  5.86665000  2.00835000  1
