# generated using pymatgen
data_Mo
_symmetry_space_group_name_H-M   'P 1'
_cell_length_a   7.57209259
_cell_length_b   7.16650537
_cell_length_c   3.58121896
_cell_angle_alpha   90.00000000
_cell_angle_beta   90.00000000
_cell_angle_gamma   90.00000000
_symmetry_Int_Tables_number   1
_chemical_formula_structural   Mo
_chemical_formula_sum   Mo16
_cell_volume   194.33643037
_cell_formula_units_Z   16
loop_
 _symmetry_equiv_pos_site_id
 _symmetry_equiv_pos_as_xyz
  1  'x, y, z'
loop_
 _atom_site_type_symbol
 _atom_site_label
 _atom_site_symmetry_multiplicity
 _atom_site_fract_x
 _atom_site_fract_y
 _atom_site_fract_z
 _atom_site_occupancy
  Mo  Mo0  1  0.25949400  7.62866000  3.80194000  1
  Mo  Mo1  1  2.15154000  2.25798000  0.24537100  1
  Mo  Mo2  1  2.13585000  0.46746800  2.01722000  1
  Mo  Mo3  1  0.25668200  2.25870000  2.03208000  1
  Mo  Mo4  1  4.05068000  7.63290000  3.81119000  1
  Mo  Mo5  1  5.94858000  2.25612000  0.24301800  1
  Mo  Mo6  1  5.92622000  0.46723100  2.02083000  1
  Mo  Mo7  1  4.05114000  2.27117000  2.02893000  1
  Mo  Mo8  1  7.84254000  4.04993000  0.22906800  1
  Mo  Mo9  1  2.16520000  5.84529000  0.23998600  1
  Mo  Mo10  1  2.15792000  4.04408000  2.00813000  1
  Mo  Mo11  1  0.26915600  5.84849000  2.02778000  1
  Mo  Mo12  1  4.05355000  4.04938000  0.23808400  1
  Mo  Mo13  1  5.94726000  5.83475000  3.82634000  1
  Mo  Mo14  1  5.95331000  4.05423000  2.01283000  1
  Mo  Mo15  1  4.05879000  5.83362000  2.03598000  1
