# generated using pymatgen
data_Mo
_symmetry_space_group_name_H-M   'P 1'
_cell_length_a   8.45564897
_cell_length_b   6.89184058
_cell_length_c   3.44288540
_cell_angle_alpha   90.00000000
_cell_angle_beta   90.00000000
_cell_angle_gamma   90.00000000
_symmetry_Int_Tables_number   1
_chemical_formula_structural   Mo
_chemical_formula_sum   Mo16
_cell_volume   200.63409395
_cell_formula_units_Z   16
loop_
 _symmetry_equiv_pos_site_id
 _symmetry_equiv_pos_as_xyz
  1  'x, y, z'
loop_
 _atom_site_type_symbol
 _atom_site_label
 _atom_site_symmetry_multiplicity
 _atom_site_fract_x
 _atom_site_fract_y
 _atom_site_fract_z
 _atom_site_occupancy
  Mo  Mo0  1  1.93675000  2.32372000  0.31122700  1
  Mo  Mo1  1  1.93818000  0.60527000  2.02235000  1
  Mo  Mo2  1  -0.17162100  2.32488000  2.03349000  1
  Mo  Mo3  1  4.05548000  7.49765000  3.73262000  1
  Mo  Mo4  1  4.05054000  2.33085000  2.02826000  1
  Mo  Mo5  1  -0.18076500  4.04872000  3.74747000  1
  Mo  Mo6  1  1.94042000  5.77129000  0.31339700  1
  Mo  Mo7  1  1.92499000  4.05000000  2.01377000  1
  Mo  Mo8  1  -0.17808200  5.78154000  2.04081000  1
  Mo  Mo9  1  4.05377000  4.04726000  0.29790400  1
  Mo  Mo10  1  4.04323000  5.77164000  2.02576000  1
  Mo  Mo11  1  8.27448000  7.49490000  3.73955000  1
  Mo  Mo12  1  6.17595000  2.32345000  0.31211400  1
  Mo  Mo13  1  6.16424000  0.60593000  2.02017000  1
  Mo  Mo14  1  6.16729000  5.76850000  0.30780400  1
  Mo  Mo15  1  6.14948000  4.05438000  2.01042000  1
