# generated using pymatgen
data_Mo
_symmetry_space_group_name_H-M   'P 1'
_cell_length_a   7.92144005
_cell_length_b   7.05000722
_cell_length_c   3.52426410
_cell_angle_alpha   90.00000000
_cell_angle_beta   90.00000000
_cell_angle_gamma   90.00000000
_symmetry_Int_Tables_number   1
_chemical_formula_structural   Mo
_chemical_formula_sum   Mo16
_cell_volume   196.81679138
_cell_formula_units_Z   16
loop_
 _symmetry_equiv_pos_site_id
 _symmetry_equiv_pos_as_xyz
  1  'x, y, z'
loop_
 _atom_site_type_symbol
 _atom_site_label
 _atom_site_symmetry_multiplicity
 _atom_site_fract_x
 _atom_site_fract_y
 _atom_site_fract_z
 _atom_site_occupancy
  Mo  Mo0  1  0.09448590  7.56880000  3.80781000  1
  Mo  Mo1  1  2.07847000  2.29142000  0.25136800  1
  Mo  Mo2  1  2.07472000  0.53093200  2.03906000  1
  Mo  Mo3  1  0.08697920  2.28125000  2.01698000  1
  Mo  Mo4  1  4.04425000  7.56934000  3.79882000  1
  Mo  Mo5  1  6.02479000  2.29525000  0.24690500  1
  Mo  Mo6  1  6.02535000  0.52860700  2.03366000  1
  Mo  Mo7  1  4.05060000  2.27904000  2.00644000  1
  Mo  Mo8  1  8.01116000  4.04592000  0.27345000  1
  Mo  Mo9  1  2.07489000  5.82355000  0.26001500  1
  Mo  Mo10  1  2.07472000  4.05429000  2.02528000  1
  Mo  Mo11  1  0.09017280  5.80549000  2.02451000  1
  Mo  Mo12  1  4.03670000  4.04348000  0.26471000  1
  Mo  Mo13  1  6.02549000  5.82445000  3.78466000  1
  Mo  Mo14  1  6.03608000  4.05279000  2.02043000  1
  Mo  Mo15  1  4.04971000  5.80540000  2.02164000  1
