# generated using pymatgen
data_Mo
_symmetry_space_group_name_H-M   'P 1'
_cell_length_a   8.50368389
_cell_length_b   6.89312893
_cell_length_c   3.42876554
_cell_angle_alpha   90.00000000
_cell_angle_beta   90.00000000
_cell_angle_gamma   90.00000000
_symmetry_Int_Tables_number   1
_chemical_formula_structural   Mo
_chemical_formula_sum   Mo16
_cell_volume   200.98391332
_cell_formula_units_Z   16
loop_
 _symmetry_equiv_pos_site_id
 _symmetry_equiv_pos_as_xyz
  1  'x, y, z'
loop_
 _atom_site_type_symbol
 _atom_site_label
 _atom_site_symmetry_multiplicity
 _atom_site_fract_x
 _atom_site_fract_y
 _atom_site_fract_z
 _atom_site_occupancy
  Mo  Mo0  1  1.91764000  2.33612000  0.31939000  1
  Mo  Mo1  1  1.91513000  0.60631800  2.01559000  1
  Mo  Mo2  1  -0.20375800  2.32906000  2.03490000  1
  Mo  Mo3  1  4.03142000  7.48380000  3.72782000  1
  Mo  Mo4  1  4.05051000  2.32491000  2.03589000  1
  Mo  Mo5  1  -0.18361100  4.03879000  3.74113000  1
  Mo  Mo6  1  1.92397000  5.77933000  0.31530900  1
  Mo  Mo7  1  1.93845000  4.05281000  2.01742000  1
  Mo  Mo8  1  -0.20079500  5.76407000  2.03566000  1
  Mo  Mo9  1  4.05950000  4.04782000  0.31241300  1
  Mo  Mo10  1  4.06123000  5.76684000  2.02381000  1
  Mo  Mo11  1  8.29725000  7.49183000  3.72754000  1
  Mo  Mo12  1  6.15765000  2.32920000  0.32059400  1
  Mo  Mo13  1  6.18046000  0.61486100  2.01786000  1
  Mo  Mo14  1  6.17207000  5.77833000  0.30803600  1
  Mo  Mo15  1  6.17920000  4.05591000  2.01789000  1
