# generated using pymatgen
data_Mo
_symmetry_space_group_name_H-M   'P 1'
_cell_length_a   7.91998363
_cell_length_b   7.05075133
_cell_length_c   3.52434754
_cell_angle_alpha   90.00000000
_cell_angle_beta   90.00000000
_cell_angle_gamma   90.00000000
_symmetry_Int_Tables_number   1
_chemical_formula_structural   Mo
_chemical_formula_sum   Mo16
_cell_volume   196.80603444
_cell_formula_units_Z   16
loop_
 _symmetry_equiv_pos_site_id
 _symmetry_equiv_pos_as_xyz
  1  'x, y, z'
loop_
 _atom_site_type_symbol
 _atom_site_label
 _atom_site_symmetry_multiplicity
 _atom_site_fract_x
 _atom_site_fract_y
 _atom_site_fract_z
 _atom_site_occupancy
  Mo  Mo0  1  0.09376190  7.57068000  3.81089000  1
  Mo  Mo1  1  2.07508000  2.29175000  0.24952000  1
  Mo  Mo2  1  2.07093000  0.53153500  2.03776000  1
  Mo  Mo3  1  0.08816320  2.28139000  2.01330000  1
  Mo  Mo4  1  4.04418000  7.56791000  3.80175000  1
  Mo  Mo5  1  6.02198000  2.29674000  0.24755000  1
  Mo  Mo6  1  6.02462000  0.52721300  2.03264000  1
  Mo  Mo7  1  4.04803000  2.28012000  2.00756000  1
  Mo  Mo8  1  8.01070000  4.04547000  0.27247800  1
  Mo  Mo9  1  2.07355000  5.82238000  0.26060400  1
  Mo  Mo10  1  2.08222000  4.05489000  2.02756000  1
  Mo  Mo11  1  0.09297080  5.80374000  2.02257000  1
  Mo  Mo12  1  4.03996000  4.04512000  0.26349500  1
  Mo  Mo13  1  6.02467000  5.82636000  3.78512000  1
  Mo  Mo14  1  6.03787000  4.05053000  2.02253000  1
  Mo  Mo15  1  4.05132000  5.80420000  2.02033000  1
