# generated using pymatgen
data_Mo
_symmetry_space_group_name_H-M   'P 1'
_cell_length_a   7.68854174
_cell_length_b   7.12472215
_cell_length_c   3.56200433
_cell_angle_alpha   90.00000000
_cell_angle_beta   90.00000000
_cell_angle_gamma   90.00000000
_symmetry_Int_Tables_number   1
_chemical_formula_structural   Mo
_chemical_formula_sum   Mo16
_cell_volume   195.12205075
_cell_formula_units_Z   16
loop_
 _symmetry_equiv_pos_site_id
 _symmetry_equiv_pos_as_xyz
  1  'x, y, z'
loop_
 _atom_site_type_symbol
 _atom_site_label
 _atom_site_symmetry_multiplicity
 _atom_site_fract_x
 _atom_site_fract_y
 _atom_site_fract_z
 _atom_site_occupancy
  Mo  Mo0  1  0.19569400  7.61414000  3.80688000  1
  Mo  Mo1  1  2.12128000  2.28342000  0.24510300  1
  Mo  Mo2  1  2.11312000  0.48417200  2.02674000  1
  Mo  Mo3  1  0.20210900  2.26836000  2.02216000  1
  Mo  Mo4  1  4.04611000  7.60649000  3.81119000  1
  Mo  Mo5  1  5.97456000  2.27325000  0.24113800  1
  Mo  Mo6  1  5.97919000  0.49159300  2.02932000  1
  Mo  Mo7  1  4.04318000  2.26452000  2.01663000  1
  Mo  Mo8  1  7.89560000  4.04349000  0.26038300  1
  Mo  Mo9  1  2.12670000  5.83405000  0.23039700  1
  Mo  Mo10  1  2.13658000  4.04955000  2.03390000  1
  Mo  Mo11  1  0.20234600  5.82414000  2.00810000  1
  Mo  Mo12  1  4.06526000  4.05255000  0.26486000  1
  Mo  Mo13  1  5.98287000  5.83280000  3.79363000  1
  Mo  Mo14  1  5.97315000  4.05170000  2.03712000  1
  Mo  Mo15  1  4.05370000  5.82578000  2.01044000  1
