# generated using pymatgen
data_Mo
_symmetry_space_group_name_H-M   'P 1'
_cell_length_a   8.10484701
_cell_length_b   6.99453598
_cell_length_c   3.49631190
_cell_angle_alpha   90.00000000
_cell_angle_beta   90.00000000
_cell_angle_gamma   90.00000000
_symmetry_Int_Tables_number   1
_chemical_formula_structural   Mo
_chemical_formula_sum   Mo16
_cell_volume   198.20467721
_cell_formula_units_Z   16
loop_
 _symmetry_equiv_pos_site_id
 _symmetry_equiv_pos_as_xyz
  1  'x, y, z'
loop_
 _atom_site_type_symbol
 _atom_site_label
 _atom_site_symmetry_multiplicity
 _atom_site_fract_x
 _atom_site_fract_y
 _atom_site_fract_z
 _atom_site_occupancy
  Mo  Mo0  1  -0.00493752  7.54758000  3.75869000  1
  Mo  Mo1  1  2.02216000  2.30363000  0.29148700  1
  Mo  Mo2  1  2.02230000  0.55272800  2.01340000  1
  Mo  Mo3  1  -0.00023234  2.31071000  2.04385000  1
  Mo  Mo4  1  4.04180000  7.54510000  3.75680000  1
  Mo  Mo5  1  6.06147000  2.29787000  0.28584000  1
  Mo  Mo6  1  6.06609000  0.55817000  2.01334000  1
  Mo  Mo7  1  4.04176000  2.29909000  2.03593000  1
  Mo  Mo8  1  8.11250000  4.04783000  0.27689800  1
  Mo  Mo9  1  2.02407000  5.79288000  0.27651900  1
  Mo  Mo10  1  2.03663000  4.05473000  2.02159000  1
  Mo  Mo11  1  0.00540681  5.79187000  2.02887000  1
  Mo  Mo12  1  4.06094000  4.04828000  0.27479100  1
  Mo  Mo13  1  6.07520000  5.79461000  3.77338000  1
  Mo  Mo14  1  6.07900000  4.05181000  2.02224000  1
  Mo  Mo15  1  4.05098000  5.80312000  2.03007000  1
