# generated using pymatgen
data_Mo
_symmetry_space_group_name_H-M   'P 1'
_cell_length_a   8.11358072
_cell_length_b   6.98978257
_cell_length_c   3.49588299
_cell_angle_alpha   90.00000000
_cell_angle_beta   90.00000000
_cell_angle_gamma   90.00000000
_symmetry_Int_Tables_number   1
_chemical_formula_structural   Mo
_chemical_formula_sum   Mo16
_cell_volume   198.25909319
_cell_formula_units_Z   16
loop_
 _symmetry_equiv_pos_site_id
 _symmetry_equiv_pos_as_xyz
  1  'x, y, z'
loop_
 _atom_site_type_symbol
 _atom_site_label
 _atom_site_symmetry_multiplicity
 _atom_site_fract_x
 _atom_site_fract_y
 _atom_site_fract_z
 _atom_site_occupancy
  Mo  Mo0  1  0.00232234  7.55727000  3.78508000  1
  Mo  Mo1  1  2.02363000  2.29740000  0.27785300  1
  Mo  Mo2  1  2.01849000  0.54762900  2.02827000  1
  Mo  Mo3  1  -0.00875026  2.30422000  2.02267000  1
  Mo  Mo4  1  4.05215000  7.54678000  3.77411000  1
  Mo  Mo5  1  6.08008000  2.29968000  0.27485400  1
  Mo  Mo6  1  6.09662000  0.54502700  2.02173000  1
  Mo  Mo7  1  4.05565000  2.30280000  2.01531000  1
  Mo  Mo8  1  8.09671000  4.05128000  0.28048100  1
  Mo  Mo9  1  2.01515000  5.79107000  0.28038300  1
  Mo  Mo10  1  2.02513000  4.04588000  2.03330000  1
  Mo  Mo11  1  -0.01685990  5.80620000  2.02159000  1
  Mo  Mo12  1  4.03759000  4.05888000  0.26910400  1
  Mo  Mo13  1  6.07480000  5.79847000  3.77500000  1
  Mo  Mo14  1  6.07876000  4.04040000  2.02737000  1
  Mo  Mo15  1  4.05493000  5.80701000  2.01700000  1
