# generated using pymatgen
data_Mo
_symmetry_space_group_name_H-M   'P 1'
_cell_length_a   7.76423374
_cell_length_b   7.10055465
_cell_length_c   3.54896164
_cell_angle_alpha   90.00000000
_cell_angle_beta   90.00000000
_cell_angle_gamma   90.00000000
_symmetry_Int_Tables_number   1
_chemical_formula_structural   Mo
_chemical_formula_sum   Mo16
_cell_volume   195.65555387
_cell_formula_units_Z   16
loop_
 _symmetry_equiv_pos_site_id
 _symmetry_equiv_pos_as_xyz
  1  'x, y, z'
loop_
 _atom_site_type_symbol
 _atom_site_label
 _atom_site_symmetry_multiplicity
 _atom_site_fract_x
 _atom_site_fract_y
 _atom_site_fract_z
 _atom_site_occupancy
  Mo  Mo0  1  0.15950100  7.59519000  3.80876000  1
  Mo  Mo1  1  2.11105000  2.27250000  0.25025500  1
  Mo  Mo2  1  2.10350000  0.50486400  2.02286000  1
  Mo  Mo3  1  0.16144100  2.26811000  2.02206000  1
  Mo  Mo4  1  4.04494000  7.60103000  3.80547000  1
  Mo  Mo5  1  5.99655000  2.28154000  0.24877800  1
  Mo  Mo6  1  5.97281000  0.49557800  2.02043000  1
  Mo  Mo7  1  4.04438000  2.27412000  2.02046000  1
  Mo  Mo8  1  7.93731000  4.05454000  0.26443700  1
  Mo  Mo9  1  2.12146000  5.83236000  0.23617200  1
  Mo  Mo10  1  2.11063000  4.05119000  2.04124000  1
  Mo  Mo11  1  0.17275400  5.82280000  2.00285000  1
  Mo  Mo12  1  4.05279000  4.04511000  0.26140600  1
  Mo  Mo13  1  5.99893000  5.83550000  3.79200000  1
  Mo  Mo14  1  5.99918000  4.04650000  2.04003000  1
  Mo  Mo15  1  4.04853000  5.81907000  2.01384000  1
