# generated using pymatgen
data_Mo
_symmetry_space_group_name_H-M   'P 1'
_cell_length_a   7.97820869
_cell_length_b   7.03180730
_cell_length_c   3.51578736
_cell_angle_alpha   90.00000000
_cell_angle_beta   90.00000000
_cell_angle_gamma   90.00000000
_symmetry_Int_Tables_number   1
_chemical_formula_structural   Mo
_chemical_formula_sum   Mo16
_cell_volume   197.23998183
_cell_formula_units_Z   16
loop_
 _symmetry_equiv_pos_site_id
 _symmetry_equiv_pos_as_xyz
  1  'x, y, z'
loop_
 _atom_site_type_symbol
 _atom_site_label
 _atom_site_symmetry_multiplicity
 _atom_site_fract_x
 _atom_site_fract_y
 _atom_site_fract_z
 _atom_site_occupancy
  Mo  Mo0  1  0.06529760  7.56265000  3.78000000  1
  Mo  Mo1  1  2.05837000  2.28377000  0.27352800  1
  Mo  Mo2  1  2.05375000  0.53765900  2.01260000  1
  Mo  Mo3  1  0.05933150  2.28948000  2.02759000  1
  Mo  Mo4  1  4.04413000  7.56482000  3.78643000  1
  Mo  Mo5  1  6.04494000  2.28768000  0.27288300  1
  Mo  Mo6  1  6.04357000  0.53247900  2.01553000  1
  Mo  Mo7  1  4.05300000  2.30067000  2.03119000  1
  Mo  Mo8  1  8.04226000  4.05099000  0.26093300  1
  Mo  Mo9  1  2.06470000  5.81010000  0.26714800  1
  Mo  Mo10  1  2.05765000  4.04801000  2.02207000  1
  Mo  Mo11  1  0.05945320  5.81538000  2.01695000  1
  Mo  Mo12  1  4.04037000  4.04867000  0.26707900  1
  Mo  Mo13  1  6.03742000  5.81092000  3.79100000  1
  Mo  Mo14  1  6.04438000  4.04784000  2.02603000  1
  Mo  Mo15  1  4.05315000  5.80890000  2.03325000  1
