# generated using pymatgen
data_Mo
_symmetry_space_group_name_H-M   'P 1'
_cell_length_a   8.51824039
_cell_length_b   6.88327807
_cell_length_c   3.42934465
_cell_angle_alpha   90.00000000
_cell_angle_beta   90.00000000
_cell_angle_gamma   90.00000000
_symmetry_Int_Tables_number   1
_chemical_formula_structural   Mo
_chemical_formula_sum   Mo16
_cell_volume   201.07419618
_cell_formula_units_Z   16
loop_
 _symmetry_equiv_pos_site_id
 _symmetry_equiv_pos_as_xyz
  1  'x, y, z'
loop_
 _atom_site_type_symbol
 _atom_site_label
 _atom_site_symmetry_multiplicity
 _atom_site_fract_x
 _atom_site_fract_y
 _atom_site_fract_z
 _atom_site_occupancy
  Mo  Mo0  1  1.92288000  2.32258000  0.31025000  1
  Mo  Mo1  1  1.92304000  0.60341800  2.02731000  1
  Mo  Mo2  1  -0.20587500  2.32950000  2.01798000  1
  Mo  Mo3  1  4.06271000  7.50050000  3.74866000  1
  Mo  Mo4  1  4.04792000  2.33568000  2.01838000  1
  Mo  Mo5  1  -0.21582700  4.05483000  3.73322000  1
  Mo  Mo6  1  1.92368000  5.76822000  0.31296200  1
  Mo  Mo7  1  1.90999000  4.04402000  2.02003000  1
  Mo  Mo8  1  -0.20346600  5.78503000  2.01847000  1
  Mo  Mo9  1  4.04805000  4.05065000  0.31268100  1
  Mo  Mo10  1  4.04299000  5.77776000  2.03083000  1
  Mo  Mo11  1  8.31066000  7.49278000  3.73986000  1
  Mo  Mo12  1  6.19127000  2.32396000  0.30933200  1
  Mo  Mo13  1  6.16877000  0.60038400  2.02845000  1
  Mo  Mo14  1  6.18171000  5.76210000  0.31963600  1
  Mo  Mo15  1  6.17326000  4.04856000  2.02261000  1
