# generated using pymatgen
data_Mo
_symmetry_space_group_name_H-M   'P 1'
_cell_length_a   7.96801952
_cell_length_b   7.03603691
_cell_length_c   3.51695132
_cell_angle_alpha   90.00000000
_cell_angle_beta   90.00000000
_cell_angle_gamma   90.00000000
_symmetry_Int_Tables_number   1
_chemical_formula_structural   Mo
_chemical_formula_sum   Mo16
_cell_volume   197.17182463
_cell_formula_units_Z   16
loop_
 _symmetry_equiv_pos_site_id
 _symmetry_equiv_pos_as_xyz
  1  'x, y, z'
loop_
 _atom_site_type_symbol
 _atom_site_label
 _atom_site_symmetry_multiplicity
 _atom_site_fract_x
 _atom_site_fract_y
 _atom_site_fract_z
 _atom_site_occupancy
  Mo  Mo0  1  0.07098950  7.56189000  3.78194000  1
  Mo  Mo1  1  2.05509000  2.29986000  0.26168700  1
  Mo  Mo2  1  2.08107000  0.53460500  2.03337000  1
  Mo  Mo3  1  0.07338260  2.28426000  2.02543000  1
  Mo  Mo4  1  4.06488000  7.57100000  3.77978000  1
  Mo  Mo5  1  6.04281000  2.30127000  0.26209900  1
  Mo  Mo6  1  6.04824000  0.53627900  2.03218000  1
  Mo  Mo7  1  4.05528000  2.28556000  2.02318000  1
  Mo  Mo8  1  8.02675000  4.05135000  0.28230700  1
  Mo  Mo9  1  2.04670000  5.81486000  0.25403200  1
  Mo  Mo10  1  2.04456000  4.05022000  2.03587000  1
  Mo  Mo11  1  0.06702470  5.80211000  2.02225000  1
  Mo  Mo12  1  4.04519000  4.04459000  0.28006400  1
  Mo  Mo13  1  6.03216000  5.80777000  3.76509000  1
  Mo  Mo14  1  6.03823000  4.05690000  2.03344000  1
  Mo  Mo15  1  4.03960000  5.79748000  2.01032000  1
