# generated using pymatgen
data_Mo
_symmetry_space_group_name_H-M   'P 1'
_cell_length_a   8.36685641
_cell_length_b   6.91749609
_cell_length_c   3.45605493
_cell_angle_alpha   90.00000000
_cell_angle_beta   90.00000000
_cell_angle_gamma   90.00000000
_symmetry_Int_Tables_number   1
_chemical_formula_structural   Mo
_chemical_formula_sum   Mo16
_cell_volume   200.02849798
_cell_formula_units_Z   16
loop_
 _symmetry_equiv_pos_site_id
 _symmetry_equiv_pos_as_xyz
  1  'x, y, z'
loop_
 _atom_site_type_symbol
 _atom_site_label
 _atom_site_symmetry_multiplicity
 _atom_site_fract_x
 _atom_site_fract_y
 _atom_site_fract_z
 _atom_site_occupancy
  Mo  Mo0  1  1.96277000  2.32523000  0.30170200  1
  Mo  Mo1  1  1.95359000  0.59794100  2.02259000  1
  Mo  Mo2  1  -0.13139000  2.32498000  2.03157000  1
  Mo  Mo3  1  4.05478000  7.49968000  3.74476000  1
  Mo  Mo4  1  4.05045000  2.31625000  2.03139000  1
  Mo  Mo5  1  -0.14146200  4.04166000  3.74935000  1
  Mo  Mo6  1  1.95308000  5.77696000  0.30171900  1
  Mo  Mo7  1  1.95374000  4.06113000  2.01024000  1
  Mo  Mo8  1  -0.13455000  5.76943000  2.03321000  1
  Mo  Mo9  1  4.05095000  4.04497000  0.29118100  1
  Mo  Mo10  1  4.05038000  5.77857000  2.04175000  1
  Mo  Mo11  1  8.23344000  7.50544000  3.74661000  1
  Mo  Mo12  1  6.14670000  2.32712000  0.30133600  1
  Mo  Mo13  1  6.14297000  0.59525200  2.02007000  1
  Mo  Mo14  1  6.15072000  5.78381000  0.30740000  1
  Mo  Mo15  1  6.13698000  4.05158000  2.00905000  1
