# generated using pymatgen
data_Mo
_symmetry_space_group_name_H-M   'P 1'
_cell_length_a   7.41925362
_cell_length_b   7.22200838
_cell_length_c   3.61010695
_cell_angle_alpha   90.00000000
_cell_angle_beta   90.00000000
_cell_angle_gamma   90.00000000
_symmetry_Int_Tables_number   1
_chemical_formula_structural   Mo
_chemical_formula_sum   Mo16
_cell_volume   193.43643184
_cell_formula_units_Z   16
loop_
 _symmetry_equiv_pos_site_id
 _symmetry_equiv_pos_as_xyz
  1  'x, y, z'
loop_
 _atom_site_type_symbol
 _atom_site_label
 _atom_site_symmetry_multiplicity
 _atom_site_fract_x
 _atom_site_fract_y
 _atom_site_fract_z
 _atom_site_occupancy
  Mo  Mo0  1  0.34424200  7.66680000  3.82959000  1
  Mo  Mo1  1  2.19937000  2.24300000  0.21240800  1
  Mo  Mo2  1  2.18996000  0.42920700  2.03237000  1
  Mo  Mo3  1  0.33237500  2.24523000  2.01048000  1
  Mo  Mo4  1  4.04035000  7.66894000  3.83970000  1
  Mo  Mo5  1  5.89224000  2.23825000  0.21745900  1
  Mo  Mo6  1  5.89100000  0.43386000  2.03811000  1
  Mo  Mo7  1  4.04613000  2.24156000  2.02075000  1
  Mo  Mo8  1  7.77334000  4.05350000  0.21837100  1
  Mo  Mo9  1  2.20227000  5.85682000  0.22211300  1
  Mo  Mo10  1  2.20659000  4.04341000  2.01853000  1
  Mo  Mo11  1  0.34276400  5.86201000  2.02489000  1
  Mo  Mo12  1  4.04822000  4.05444000  0.22865300  1
  Mo  Mo13  1  5.90202000  5.85046000  3.82957000  1
  Mo  Mo14  1  5.91631000  4.04729000  2.02325000  1
  Mo  Mo15  1  4.05357000  5.86524000  2.02364000  1
