# generated using pymatgen
data_Mo
_symmetry_space_group_name_H-M   'P 1'
_cell_length_a   8.62886676
_cell_length_b   6.85429347
_cell_length_c   3.41441941
_cell_angle_alpha   90.00000000
_cell_angle_beta   90.00000000
_cell_angle_gamma   90.00000000
_symmetry_Int_Tables_number   1
_chemical_formula_structural   Mo
_chemical_formula_sum   Mo16
_cell_volume   201.94510227
_cell_formula_units_Z   16
loop_
 _symmetry_equiv_pos_site_id
 _symmetry_equiv_pos_as_xyz
  1  'x, y, z'
loop_
 _atom_site_type_symbol
 _atom_site_label
 _atom_site_symmetry_multiplicity
 _atom_site_fract_x
 _atom_site_fract_y
 _atom_site_fract_z
 _atom_site_occupancy
  Mo  Mo0  1  1.88696000  2.34157000  0.31770600  1
  Mo  Mo1  1  1.89193000  0.62961500  2.01564000  1
  Mo  Mo2  1  -0.26935700  2.32341000  2.03644000  1
  Mo  Mo3  1  4.03437000  7.47127000  3.73088000  1
  Mo  Mo4  1  4.04747000  2.33465000  2.03128000  1
  Mo  Mo5  1  -0.24586400  4.04349000  3.73301000  1
  Mo  Mo6  1  1.90466000  5.77308000  0.31217700  1
  Mo  Mo7  1  1.90191000  4.05450000  2.03281000  1
  Mo  Mo8  1  -0.26106900  5.76391000  2.02906000  1
  Mo  Mo9  1  4.05634000  4.04292000  0.31739100  1
  Mo  Mo10  1  4.05100000  5.75027000  2.01856000  1
  Mo  Mo11  1  8.35392000  7.46887000  3.73174000  1
  Mo  Mo12  1  6.20174000  2.33913000  0.31768300  1
  Mo  Mo13  1  6.20079000  0.63278000  2.01758000  1
  Mo  Mo14  1  6.20030000  5.76597000  0.30880000  1
  Mo  Mo15  1  6.21603000  4.06455000  2.03482000  1
