# generated using pymatgen
data_Mo
_symmetry_space_group_name_H-M   'P 1'
_cell_length_a   8.10630247
_cell_length_b   6.99401152
_cell_length_c   3.49616838
_cell_angle_alpha   90.00000000
_cell_angle_beta   90.00000000
_cell_angle_gamma   90.00000000
_symmetry_Int_Tables_number   1
_chemical_formula_structural   Mo
_chemical_formula_sum   Mo16
_cell_volume   198.21726882
_cell_formula_units_Z   16
loop_
 _symmetry_equiv_pos_site_id
 _symmetry_equiv_pos_as_xyz
  1  'x, y, z'
loop_
 _atom_site_type_symbol
 _atom_site_label
 _atom_site_symmetry_multiplicity
 _atom_site_fract_x
 _atom_site_fract_y
 _atom_site_fract_z
 _atom_site_occupancy
  Mo  Mo0  1  -0.00076797  7.55141000  3.76211000  1
  Mo  Mo1  1  2.02157000  2.30055000  0.29349200  1
  Mo  Mo2  1  2.02021000  0.55126700  2.01204000  1
  Mo  Mo3  1  -0.00091092  2.31151000  2.04378000  1
  Mo  Mo4  1  4.04418000  7.54588000  3.75667000  1
  Mo  Mo5  1  6.06120000  2.29713000  0.28695500  1
  Mo  Mo6  1  6.06995000  0.55417400  2.01001000  1
  Mo  Mo7  1  4.04410000  2.30091000  2.03424000  1
  Mo  Mo8  1  8.11055000  4.04892000  0.27628900  1
  Mo  Mo9  1  2.02101000  5.78950000  0.27902700  1
  Mo  Mo10  1  2.03775000  4.05351000  2.02304000  1
  Mo  Mo11  1  0.00290784  5.79538000  2.02741000  1
  Mo  Mo12  1  4.05645000  4.05077000  0.27062300  1
  Mo  Mo13  1  6.07223000  5.79437000  3.77648000  1
  Mo  Mo14  1  6.07995000  4.04816000  2.02205000  1
  Mo  Mo15  1  4.05330000  5.80656000  2.02960000  1
