# generated using pymatgen
data_Mo
_symmetry_space_group_name_H-M   'P 1'
_cell_length_a   7.99858703
_cell_length_b   7.02514017
_cell_length_c   3.51287866
_cell_angle_alpha   90.00000000
_cell_angle_beta   90.00000000
_cell_angle_gamma   90.00000000
_symmetry_Int_Tables_number   1
_chemical_formula_structural   Mo
_chemical_formula_sum   Mo16
_cell_volume   197.39284959
_cell_formula_units_Z   16
loop_
 _symmetry_equiv_pos_site_id
 _symmetry_equiv_pos_as_xyz
  1  'x, y, z'
loop_
 _atom_site_type_symbol
 _atom_site_label
 _atom_site_symmetry_multiplicity
 _atom_site_fract_x
 _atom_site_fract_y
 _atom_site_fract_z
 _atom_site_occupancy
  Mo  Mo0  1  0.05665190  7.56091000  3.79495000  1
  Mo  Mo1  1  2.05004000  2.30339000  0.26689000  1
  Mo  Mo2  1  2.05737000  0.54124400  2.02529000  1
  Mo  Mo3  1  0.05738240  2.28950000  2.02702000  1
  Mo  Mo4  1  4.05058000  7.55331000  3.78529000  1
  Mo  Mo5  1  6.03932000  2.30292000  0.26149500  1
  Mo  Mo6  1  6.05533000  0.54197800  2.02183000  1
  Mo  Mo7  1  4.04895000  2.28752000  2.01721000  1
  Mo  Mo8  1  8.04920000  4.04215000  0.28211800  1
  Mo  Mo9  1  2.04510000  5.81019000  0.26258500  1
  Mo  Mo10  1  2.05882000  4.05443000  2.03295000  1
  Mo  Mo11  1  0.05300530  5.79948000  2.02076000  1
  Mo  Mo12  1  4.04677000  4.04613000  0.27307800  1
  Mo  Mo13  1  6.03948000  5.81211000  3.77174000  1
  Mo  Mo14  1  6.04484000  4.05377000  2.02988000  1
  Mo  Mo15  1  4.04856000  5.80098000  2.01405000  1
