# generated using pymatgen
data_Mo
_symmetry_space_group_name_H-M   'P 1'
_cell_length_a   8.31008777
_cell_length_b   6.93402916
_cell_length_c   3.46485209
_cell_angle_alpha   90.00000000
_cell_angle_beta   90.00000000
_cell_angle_gamma   90.00000000
_symmetry_Int_Tables_number   1
_chemical_formula_structural   Mo
_chemical_formula_sum   Mo16
_cell_volume   199.65306194
_cell_formula_units_Z   16
loop_
 _symmetry_equiv_pos_site_id
 _symmetry_equiv_pos_as_xyz
  1  'x, y, z'
loop_
 _atom_site_type_symbol
 _atom_site_label
 _atom_site_symmetry_multiplicity
 _atom_site_fract_x
 _atom_site_fract_y
 _atom_site_fract_z
 _atom_site_occupancy
  Mo  Mo0  1  1.96999000  2.32533000  0.27866900  1
  Mo  Mo1  1  1.97445000  0.58662400  2.03229000  1
  Mo  Mo2  1  -0.10451700  2.30468000  2.02011000  1
  Mo  Mo3  1  4.05439000  7.51619000  3.77669000  1
  Mo  Mo4  1  4.05243000  2.31461000  2.01181000  1
  Mo  Mo5  1  -0.10871000  4.04620000  3.75482000  1
  Mo  Mo6  1  1.97475000  5.79312000  0.28749500  1
  Mo  Mo7  1  1.96726000  4.05117000  2.02932000  1
  Mo  Mo8  1  -0.10354800  5.78152000  2.02399000  1
  Mo  Mo9  1  4.04654000  4.04331000  0.29291100  1
  Mo  Mo10  1  4.04841000  5.76893000  2.02548000  1
  Mo  Mo11  1  8.20377000  7.50915000  3.77417000  1
  Mo  Mo12  1  6.13548000  2.32563000  0.27433000  1
  Mo  Mo13  1  6.12533000  0.58721600  2.03252000  1
  Mo  Mo14  1  6.12606000  5.78532000  0.28976800  1
  Mo  Mo15  1  6.12782000  4.06101000  2.03077000  1
