# generated using pymatgen
data_Mo
_symmetry_space_group_name_H-M   'P 1'
_cell_length_a   7.59247142
_cell_length_b   7.15596166
_cell_length_c   3.57929015
_cell_angle_alpha   90.00000000
_cell_angle_beta   90.00000000
_cell_angle_gamma   90.00000000
_symmetry_Int_Tables_number   1
_chemical_formula_structural   Mo
_chemical_formula_sum   Mo16
_cell_volume   194.46796811
_cell_formula_units_Z   16
loop_
 _symmetry_equiv_pos_site_id
 _symmetry_equiv_pos_as_xyz
  1  'x, y, z'
loop_
 _atom_site_type_symbol
 _atom_site_label
 _atom_site_symmetry_multiplicity
 _atom_site_fract_x
 _atom_site_fract_y
 _atom_site_fract_z
 _atom_site_occupancy
  Mo  Mo0  1  0.26429700  7.62027000  3.81287000  1
  Mo  Mo1  1  2.15510000  2.26640000  0.23910700  1
  Mo  Mo2  1  2.15713000  0.47703400  2.02086000  1
  Mo  Mo3  1  0.26815200  2.25680000  2.02915000  1
  Mo  Mo4  1  4.06066000  7.61784000  3.81060000  1
  Mo  Mo5  1  5.94638000  2.26162000  0.23985800  1
  Mo  Mo6  1  5.94766000  0.48226300  2.01942000  1
  Mo  Mo7  1  4.04750000  2.25156000  2.02797000  1
  Mo  Mo8  1  7.83314000  4.03947000  0.23500700  1
  Mo  Mo9  1  2.14532000  5.84581000  0.24515900  1
  Mo  Mo10  1  2.15862000  4.05661000  2.01190000  1
  Mo  Mo11  1  0.26014800  5.83682000  2.03834000  1
  Mo  Mo12  1  4.04286000  4.04347000  0.23257600  1
  Mo  Mo13  1  5.93943000  5.84671000  3.81957000  1
  Mo  Mo14  1  5.93549000  4.05745000  2.00967000  1
  Mo  Mo15  1  4.04564000  5.83986000  2.02864000  1
