# generated using pymatgen
data_Mo
_symmetry_space_group_name_H-M   'P 1'
_cell_length_a   8.58956555
_cell_length_b   6.84241903
_cell_length_c   3.43078065
_cell_angle_alpha   90.00000000
_cell_angle_beta   90.00000000
_cell_angle_gamma   90.00000000
_symmetry_Int_Tables_number   1
_chemical_formula_structural   Mo
_chemical_formula_sum   Mo16
_cell_volume   201.63866650
_cell_formula_units_Z   16
loop_
 _symmetry_equiv_pos_site_id
 _symmetry_equiv_pos_as_xyz
  1  'x, y, z'
loop_
 _atom_site_type_symbol
 _atom_site_label
 _atom_site_symmetry_multiplicity
 _atom_site_fract_x
 _atom_site_fract_y
 _atom_site_fract_z
 _atom_site_occupancy
  Mo  Mo0  1  1.89140000  2.33213000  0.31717200  1
  Mo  Mo1  1  1.88798000  0.63235100  2.02014000  1
  Mo  Mo2  1  -0.25109800  2.34144000  2.03494000  1
  Mo  Mo3  1  4.05436000  7.47607000  3.73037000  1
  Mo  Mo4  1  4.04994000  2.34340000  2.03240000  1
  Mo  Mo5  1  -0.23974300  4.05544000  3.73068000  1
  Mo  Mo6  1  1.90198000  5.76005000  0.31464500  1
  Mo  Mo7  1  1.90246000  4.04815000  2.01860000  1
  Mo  Mo8  1  -0.23556500  5.76127000  2.03204000  1
  Mo  Mo9  1  4.06026000  4.04714000  0.30229000  1
  Mo  Mo10  1  4.05591000  5.76108000  2.03441000  1
  Mo  Mo11  1  8.33641000  7.46617000  3.72837000  1
  Mo  Mo12  1  6.19969000  2.33351000  0.31488900  1
  Mo  Mo13  1  6.17509000  0.63288500  2.02210000  1
  Mo  Mo14  1  6.20300000  5.75564000  0.31541400  1
  Mo  Mo15  1  6.21836000  4.05328000  2.02077000  1
