# generated using pymatgen
data_Mo
_symmetry_space_group_name_H-M   'P 1'
_cell_length_a   7.63322857
_cell_length_b   7.14373064
_cell_length_c   3.57121634
_cell_angle_alpha   90.00000000
_cell_angle_beta   90.00000000
_cell_angle_gamma   90.00000000
_symmetry_Int_Tables_number   1
_chemical_formula_structural   Mo
_chemical_formula_sum   Mo16
_cell_volume   194.73745885
_cell_formula_units_Z   16
loop_
 _symmetry_equiv_pos_site_id
 _symmetry_equiv_pos_as_xyz
  1  'x, y, z'
loop_
 _atom_site_type_symbol
 _atom_site_label
 _atom_site_symmetry_multiplicity
 _atom_site_fract_x
 _atom_site_fract_y
 _atom_site_fract_z
 _atom_site_occupancy
  Mo  Mo0  1  0.23697600  7.62282000  3.82569000  1
  Mo  Mo1  1  2.14185000  2.26112000  0.22880400  1
  Mo  Mo2  1  2.14138000  0.47522800  2.03841000  1
  Mo  Mo3  1  0.22746500  2.27236000  2.01105000  1
  Mo  Mo4  1  4.05657000  7.62874000  3.82346000  1
  Mo  Mo5  1  5.96505000  2.26645000  0.22784000  1
  Mo  Mo6  1  5.96095000  0.47149300  2.03587000  1
  Mo  Mo7  1  4.05475000  2.26959000  2.00955000  1
  Mo  Mo8  1  7.86300000  4.06035000  0.23982500  1
  Mo  Mo9  1  2.13842000  5.83127000  0.23710900  1
  Mo  Mo10  1  2.12874000  4.04493000  2.03088000  1
  Mo  Mo11  1  0.22649300  5.83041000  2.01587000  1
  Mo  Mo12  1  4.04880000  4.05375000  0.23771600  1
  Mo  Mo13  1  5.96187000  5.83598000  3.81354000  1
  Mo  Mo14  1  5.96413000  4.03990000  2.02938000  1
  Mo  Mo15  1  4.05032000  5.83562000  2.02381000  1
