# generated using pymatgen
data_Mo
_symmetry_space_group_name_H-M   'P 1'
_cell_length_a   8.23002892
_cell_length_b   6.95696390
_cell_length_c   3.47750878
_cell_angle_alpha   90.00000000
_cell_angle_beta   90.00000000
_cell_angle_gamma   90.00000000
_symmetry_Int_Tables_number   1
_chemical_formula_structural   Mo
_chemical_formula_sum   Mo16
_cell_volume   199.10829181
_cell_formula_units_Z   16
loop_
 _symmetry_equiv_pos_site_id
 _symmetry_equiv_pos_as_xyz
  1  'x, y, z'
loop_
 _atom_site_type_symbol
 _atom_site_label
 _atom_site_symmetry_multiplicity
 _atom_site_fract_x
 _atom_site_fract_y
 _atom_site_fract_z
 _atom_site_occupancy
  Mo  Mo0  1  2.00182000  2.32188000  0.29818000  1
  Mo  Mo1  1  2.00632000  0.57316100  2.01666000  1
  Mo  Mo2  1  -0.05186420  2.30524000  2.03907000  1
  Mo  Mo3  1  4.05625000  7.52130000  3.75179000  1
  Mo  Mo4  1  4.05329000  2.30407000  2.02999000  1
  Mo  Mo5  1  -0.06896460  4.04056000  3.77170000  1
  Mo  Mo6  1  1.99205000  5.79556000  0.28765600  1
  Mo  Mo7  1  1.97938000  4.05416000  2.01841000  1
  Mo  Mo8  1  -0.06305670  5.78613000  2.03160000  1
  Mo  Mo9  1  4.04502000  4.04278000  0.29088900  1
  Mo  Mo10  1  4.04108000  5.78506000  2.02244000  1
  Mo  Mo11  1  8.17156000  7.52268000  3.75495000  1
  Mo  Mo12  1  6.10977000  2.31809000  0.29290200  1
  Mo  Mo13  1  6.11099000  0.57840600  2.01614000  1
  Mo  Mo14  1  6.10351000  5.79081000  0.28266500  1
  Mo  Mo15  1  6.08283000  4.06012000  2.01746000  1
