# generated using pymatgen
data_Mo
_symmetry_space_group_name_H-M   'P 1'
_cell_length_a   8.29844314
_cell_length_b   6.93731725
_cell_length_c   3.46673632
_cell_angle_alpha   90.00000000
_cell_angle_beta   90.00000000
_cell_angle_gamma   90.00000000
_symmetry_Int_Tables_number   1
_chemical_formula_structural   Mo
_chemical_formula_sum   Mo16
_cell_volume   199.57630988
_cell_formula_units_Z   16
loop_
 _symmetry_equiv_pos_site_id
 _symmetry_equiv_pos_as_xyz
  1  'x, y, z'
loop_
 _atom_site_type_symbol
 _atom_site_label
 _atom_site_symmetry_multiplicity
 _atom_site_fract_x
 _atom_site_fract_y
 _atom_site_fract_z
 _atom_site_occupancy
  Mo  Mo0  1  1.98210000  2.30510000  0.30526700  1
  Mo  Mo1  1  1.98833000  0.58026700  2.02100000  1
  Mo  Mo2  1  -0.09848160  2.32399000  2.03453000  1
  Mo  Mo3  1  4.05064000  7.51858000  3.73491000  1
  Mo  Mo4  1  4.05349000  2.31774000  2.03488000  1
  Mo  Mo5  1  -0.10288200  4.05423000  3.76287000  1
  Mo  Mo6  1  1.97056000  5.77840000  0.29848900  1
  Mo  Mo7  1  1.97221000  4.04841000  2.02218000  1
  Mo  Mo8  1  -0.10737600  5.78650000  2.03348000  1
  Mo  Mo9  1  4.04010000  4.05567000  0.28585600  1
  Mo  Mo10  1  4.04599000  5.79382000  2.02169000  1
  Mo  Mo11  1  8.20875000  7.52479000  3.74497000  1
  Mo  Mo12  1  6.11961000  2.30678000  0.30585300  1
  Mo  Mo13  1  6.13969000  0.57929500  2.01799000  1
  Mo  Mo14  1  6.11917000  5.78325000  0.29139300  1
  Mo  Mo15  1  6.11966000  4.04319000  2.01790000  1
