# generated using pymatgen
data_Mo
_symmetry_space_group_name_H-M   'P 1'
_cell_length_a   7.28242612
_cell_length_b   7.27685961
_cell_length_c   3.63807368
_cell_angle_alpha   90.00000000
_cell_angle_beta   90.00000000
_cell_angle_gamma   90.00000000
_symmetry_Int_Tables_number   1
_chemical_formula_structural   Mo
_chemical_formula_sum   Mo16
_cell_volume   192.79313899
_cell_formula_units_Z   16
loop_
 _symmetry_equiv_pos_site_id
 _symmetry_equiv_pos_as_xyz
  1  'x, y, z'
loop_
 _atom_site_type_symbol
 _atom_site_label
 _atom_site_symmetry_multiplicity
 _atom_site_fract_x
 _atom_site_fract_y
 _atom_site_fract_z
 _atom_site_occupancy
  Mo  Mo0  1  0.42020300  7.67948000  3.83445000  1
  Mo  Mo1  1  2.23745000  2.23703000  0.21886100  1
  Mo  Mo2  1  2.23918000  0.41263000  2.01496000  1
  Mo  Mo3  1  0.40474500  2.22786000  2.03822000  1
  Mo  Mo4  1  4.06564000  7.68927000  3.82885000  1
  Mo  Mo5  1  5.88336000  2.23619000  0.21728000  1
  Mo  Mo6  1  5.86918000  0.41610400  2.01386000  1
  Mo  Mo7  1  4.05630000  2.22931000  2.03241000  1
  Mo  Mo8  1  7.67993000  4.04879000  0.21758900  1
  Mo  Mo9  1  2.22915000  5.87558000  0.20953500  1
  Mo  Mo10  1  2.21221000  4.05049000  2.01982000  1
  Mo  Mo11  1  0.40205600  5.86952000  2.03463000  1
  Mo  Mo12  1  4.03368000  4.03921000  0.21195100  1
  Mo  Mo13  1  5.86788000  5.86518000  3.83687000  1
  Mo  Mo14  1  5.87421000  4.06017000  2.01750000  1
  Mo  Mo15  1  4.04238000  5.86315000  2.01514000  1
