# generated using pymatgen
data_Mo
_symmetry_space_group_name_H-M   'P 1'
_cell_length_a   8.48621742
_cell_length_b   6.86791080
_cell_length_c   3.44616771
_cell_angle_alpha   90.00000000
_cell_angle_beta   90.00000000
_cell_angle_gamma   90.00000000
_symmetry_Int_Tables_number   1
_chemical_formula_structural   Mo
_chemical_formula_sum   Mo16
_cell_volume   200.85155999
_cell_formula_units_Z   16
loop_
 _symmetry_equiv_pos_site_id
 _symmetry_equiv_pos_as_xyz
  1  'x, y, z'
loop_
 _atom_site_type_symbol
 _atom_site_label
 _atom_site_symmetry_multiplicity
 _atom_site_fract_x
 _atom_site_fract_y
 _atom_site_fract_z
 _atom_site_occupancy
  Mo  Mo0  1  1.93283000  2.32944000  0.29788900  1
  Mo  Mo1  1  1.93309000  0.61197600  2.02706000  1
  Mo  Mo2  1  -0.19042800  2.32935000  2.02417000  1
  Mo  Mo3  1  4.07180000  7.49319000  3.75214000  1
  Mo  Mo4  1  4.05466000  2.33260000  2.02163000  1
  Mo  Mo5  1  -0.21165100  4.05847000  3.74613000  1
  Mo  Mo6  1  1.92395000  5.76846000  0.29973100  1
  Mo  Mo7  1  1.90833000  4.04566000  2.03073000  1
  Mo  Mo8  1  -0.19488200  5.77306000  2.02291000  1
  Mo  Mo9  1  4.04176000  4.04775000  0.29831500  1
  Mo  Mo10  1  4.04172000  5.77109000  2.02479000  1
  Mo  Mo11  1  8.29866000  7.48564000  3.75410000  1
  Mo  Mo12  1  6.19099000  2.33213000  0.29545700  1
  Mo  Mo13  1  6.16844000  0.60839800  2.02746000  1
  Mo  Mo14  1  6.17620000  5.76600000  0.30011100  1
  Mo  Mo15  1  6.16832000  4.04679000  2.03122000  1
