# generated using pymatgen
data_Mo
_symmetry_space_group_name_H-M   'P 1'
_cell_length_a   7.40615305
_cell_length_b   7.22572005
_cell_length_c   3.61331248
_cell_angle_alpha   90.00000000
_cell_angle_beta   90.00000000
_cell_angle_gamma   90.00000000
_symmetry_Int_Tables_number   1
_chemical_formula_structural   Mo
_chemical_formula_sum   Mo16
_cell_volume   193.36565364
_cell_formula_units_Z   16
loop_
 _symmetry_equiv_pos_site_id
 _symmetry_equiv_pos_as_xyz
  1  'x, y, z'
loop_
 _atom_site_type_symbol
 _atom_site_label
 _atom_site_symmetry_multiplicity
 _atom_site_fract_x
 _atom_site_fract_y
 _atom_site_fract_z
 _atom_site_occupancy
  Mo  Mo0  1  0.33733300  7.66105000  3.83429000  1
  Mo  Mo1  1  2.19305000  2.24532000  0.21760900  1
  Mo  Mo2  1  2.19052000  0.44571100  2.02164000  1
  Mo  Mo3  1  0.35452400  2.24743000  2.03155000  1
  Mo  Mo4  1  4.04932000  7.65230000  3.83071000  1
  Mo  Mo5  1  5.90253000  2.24774000  0.21592400  1
  Mo  Mo6  1  5.90911000  0.44345600  2.01894000  1
  Mo  Mo7  1  4.04930000  2.24096000  2.02928000  1
  Mo  Mo8  1  7.74967000  4.04267000  0.20823500  1
  Mo  Mo9  1  2.19088000  5.85254000  0.21902500  1
  Mo  Mo10  1  2.19627000  4.06041000  2.02601000  1
  Mo  Mo11  1  0.34923600  5.84327000  2.02726000  1
  Mo  Mo12  1  4.06506000  4.04936000  0.20461400  1
  Mo  Mo13  1  5.91174000  5.86411000  3.83921000  1
  Mo  Mo14  1  5.89127000  4.05013000  2.02455000  1
  Mo  Mo15  1  4.05402000  5.85353000  2.03783000  1
