# generated using pymatgen
data_Mo
_symmetry_space_group_name_H-M   'P 1'
_cell_length_a   7.62595032
_cell_length_b   7.14505795
_cell_length_c   3.57300448
_cell_angle_alpha   90.00000000
_cell_angle_beta   90.00000000
_cell_angle_gamma   90.00000000
_symmetry_Int_Tables_number   1
_chemical_formula_structural   Mo
_chemical_formula_sum   Mo16
_cell_volume   194.68535719
_cell_formula_units_Z   16
loop_
 _symmetry_equiv_pos_site_id
 _symmetry_equiv_pos_as_xyz
  1  'x, y, z'
loop_
 _atom_site_type_symbol
 _atom_site_label
 _atom_site_symmetry_multiplicity
 _atom_site_fract_x
 _atom_site_fract_y
 _atom_site_fract_z
 _atom_site_occupancy
  Mo  Mo0  1  0.23771100  7.62269000  3.81238000  1
  Mo  Mo1  1  2.14576000  2.25515000  0.25000500  1
  Mo  Mo2  1  2.15733000  0.47652800  2.01686000  1
  Mo  Mo3  1  0.24674700  2.26492000  2.03663000  1
  Mo  Mo4  1  4.06272000  7.62794000  3.80256000  1
  Mo  Mo5  1  5.96952000  2.26203000  0.24331800  1
  Mo  Mo6  1  5.95839000  0.47114400  2.01250000  1
  Mo  Mo7  1  4.05583000  2.27438000  2.02533000  1
  Mo  Mo8  1  7.85625000  4.05866000  0.23642200  1
  Mo  Mo9  1  2.14407000  5.83135000  0.24559200  1
  Mo  Mo10  1  2.12121000  4.04449000  2.02460000  1
  Mo  Mo11  1  0.23833600  5.84667000  2.02882000  1
  Mo  Mo12  1  4.04732000  4.04980000  0.22670000  1
  Mo  Mo13  1  5.95435000  5.83020000  3.81772000  1
  Mo  Mo14  1  5.93859000  4.04659000  2.02109000  1
  Mo  Mo15  1  4.03991000  5.83744000  2.02646000  1
