# generated using pymatgen
data_Mo
_symmetry_space_group_name_H-M   'P 1'
_cell_length_a   8.33337798
_cell_length_b   6.92773169
_cell_length_c   3.46101952
_cell_angle_alpha   90.00000000
_cell_angle_beta   90.00000000
_cell_angle_gamma   90.00000000
_symmetry_Int_Tables_number   1
_chemical_formula_structural   Mo
_chemical_formula_sum   Mo16
_cell_volume   199.80952541
_cell_formula_units_Z   16
loop_
 _symmetry_equiv_pos_site_id
 _symmetry_equiv_pos_as_xyz
  1  'x, y, z'
loop_
 _atom_site_type_symbol
 _atom_site_label
 _atom_site_symmetry_multiplicity
 _atom_site_fract_x
 _atom_site_fract_y
 _atom_site_fract_z
 _atom_site_occupancy
  Mo  Mo0  1  1.97055000  2.32547000  0.28725400  1
  Mo  Mo1  1  1.97370000  0.58863200  2.02867000  1
  Mo  Mo2  1  -0.11598500  2.31318000  2.02807000  1
  Mo  Mo3  1  4.04886000  7.50594000  3.76362000  1
  Mo  Mo4  1  4.05380000  2.30865000  2.01671000  1
  Mo  Mo5  1  -0.12316100  4.04372000  3.75958000  1
  Mo  Mo6  1  1.96244000  5.79294000  0.28546000  1
  Mo  Mo7  1  1.96774000  4.05246000  2.03760000  1
  Mo  Mo8  1  -0.12523600  5.77396000  2.02271000  1
  Mo  Mo9  1  4.03941000  4.05121000  0.29741500  1
  Mo  Mo10  1  4.04940000  5.77342000  2.01630000  1
  Mo  Mo11  1  8.22273000  7.51266000  3.76522000  1
  Mo  Mo12  1  6.13277000  2.31741000  0.28156600  1
  Mo  Mo13  1  6.15150000  0.59520200  2.02829000  1
  Mo  Mo14  1  6.12895000  5.78818000  0.28285900  1
  Mo  Mo15  1  6.12915000  4.05697000  2.03765000  1
