# generated using pymatgen
data_Mo
_symmetry_space_group_name_H-M   'P 1'
_cell_length_a   8.29553222
_cell_length_b   6.93890703
_cell_length_c   3.46687555
_cell_angle_alpha   90.00000000
_cell_angle_beta   90.00000000
_cell_angle_gamma   90.00000000
_symmetry_Int_Tables_number   1
_chemical_formula_structural   Mo
_chemical_formula_sum   Mo16
_cell_volume   199.56003685
_cell_formula_units_Z   16
loop_
 _symmetry_equiv_pos_site_id
 _symmetry_equiv_pos_as_xyz
  1  'x, y, z'
loop_
 _atom_site_type_symbol
 _atom_site_label
 _atom_site_symmetry_multiplicity
 _atom_site_fract_x
 _atom_site_fract_y
 _atom_site_fract_z
 _atom_site_occupancy
  Mo  Mo0  1  1.97952000  2.30765000  0.30604700  1
  Mo  Mo1  1  1.97959000  0.57575400  2.01925000  1
  Mo  Mo2  1  -0.09799560  2.32624000  2.03899000  1
  Mo  Mo3  1  4.04801000  7.52004000  3.73631000  1
  Mo  Mo4  1  4.04915000  2.32026000  2.03558000  1
  Mo  Mo5  1  -0.10062300  4.05262000  3.75845000  1
  Mo  Mo6  1  1.97420000  5.77529000  0.29597500  1
  Mo  Mo7  1  1.97368000  4.04622000  2.02377000  1
  Mo  Mo8  1  -0.10626700  5.78930000  2.03255000  1
  Mo  Mo9  1  4.05133000  4.05932000  0.28690100  1
  Mo  Mo10  1  4.04703000  5.79442000  2.02321000  1
  Mo  Mo11  1  8.19682000  7.52899000  3.74072000  1
  Mo  Mo12  1  6.12537000  2.30247000  0.30389700  1
  Mo  Mo13  1  6.14074000  0.58024500  2.01871000  1
  Mo  Mo14  1  6.12820000  5.77619000  0.29011200  1
  Mo  Mo15  1  6.11570000  4.04498000  2.02264000  1
