# generated using pymatgen
data_Mo
_symmetry_space_group_name_H-M   'P 1'
_cell_length_a   8.36976828
_cell_length_b   6.91416025
_cell_length_c   3.45685601
_cell_angle_alpha   90.00000000
_cell_angle_beta   90.00000000
_cell_angle_gamma   90.00000000
_symmetry_Int_Tables_number   1
_chemical_formula_structural   Mo
_chemical_formula_sum   Mo16
_cell_volume   200.04797789
_cell_formula_units_Z   16
loop_
 _symmetry_equiv_pos_site_id
 _symmetry_equiv_pos_as_xyz
  1  'x, y, z'
loop_
 _atom_site_type_symbol
 _atom_site_label
 _atom_site_symmetry_multiplicity
 _atom_site_fract_x
 _atom_site_fract_y
 _atom_site_fract_z
 _atom_site_occupancy
  Mo  Mo0  1  1.97054000  2.32501000  0.29405600  1
  Mo  Mo1  1  1.96091000  0.59323400  2.02811000  1
  Mo  Mo2  1  -0.13098100  2.32701000  2.02834000  1
  Mo  Mo3  1  4.06151000  7.50712000  3.75106000  1
  Mo  Mo4  1  4.04685000  2.31717000  2.02562000  1
  Mo  Mo5  1  -0.15060100  4.04826000  3.74613000  1
  Mo  Mo6  1  1.95532000  5.77490000  0.30234600  1
  Mo  Mo7  1  1.95190000  4.05401000  2.01733000  1
  Mo  Mo8  1  -0.13501900  5.77275000  2.03764000  1
  Mo  Mo9  1  4.04188000  4.04875000  0.28582900  1
  Mo  Mo10  1  4.04181000  5.77927000  2.03533000  1
  Mo  Mo11  1  8.24022000  7.50827000  3.75400000  1
  Mo  Mo12  1  6.15221000  2.32464000  0.29387200  1
  Mo  Mo13  1  6.13778000  0.59335500  2.02545000  1
  Mo  Mo14  1  6.15006000  5.77595000  0.30292100  1
  Mo  Mo15  1  6.13583000  4.05029000  2.01511000  1
