# generated using pymatgen
data_Mo
_symmetry_space_group_name_H-M   'P 1'
_cell_length_a   7.66234061
_cell_length_b   7.13285032
_cell_length_c   3.56678653
_cell_angle_alpha   90.00000000
_cell_angle_beta   90.00000000
_cell_angle_gamma   90.00000000
_symmetry_Int_Tables_number   1
_chemical_formula_structural   Mo
_chemical_formula_sum   Mo16
_cell_volume   194.94032319
_cell_formula_units_Z   16
loop_
 _symmetry_equiv_pos_site_id
 _symmetry_equiv_pos_as_xyz
  1  'x, y, z'
loop_
 _atom_site_type_symbol
 _atom_site_label
 _atom_site_symmetry_multiplicity
 _atom_site_fract_x
 _atom_site_fract_y
 _atom_site_fract_z
 _atom_site_occupancy
  Mo  Mo0  1  0.23152000  7.61440000  3.81305000  1
  Mo  Mo1  1  2.13243000  2.27312000  0.23834600  1
  Mo  Mo2  1  2.13612000  0.48379900  2.03915000  1
  Mo  Mo3  1  0.21836100  2.26346000  2.02445000  1
  Mo  Mo4  1  4.06919000  7.61605000  3.80786000  1
  Mo  Mo5  1  5.97469000  2.27066000  0.23088000  1
  Mo  Mo6  1  5.97496000  0.48685400  2.03659000  1
  Mo  Mo7  1  4.05869000  2.26985000  2.00935000  1
  Mo  Mo8  1  7.87053000  4.05184000  0.25806500  1
  Mo  Mo9  1  2.12502000  5.83980000  0.23239300  1
  Mo  Mo10  1  2.12176000  4.04380000  2.03263000  1
  Mo  Mo11  1  0.21154100  5.83054000  2.02123000  1
  Mo  Mo12  1  4.04041000  4.05155000  0.25282000  1
  Mo  Mo13  1  5.95908000  5.83105000  3.79491000  1
  Mo  Mo14  1  5.96483000  4.05426000  2.03050000  1
  Mo  Mo15  1  4.04851000  5.81897000  2.01100000  1
