# generated using pymatgen
data_Mo
_symmetry_space_group_name_H-M   'P 1'
_cell_length_a   8.14414823
_cell_length_b   6.98268837
_cell_length_c   3.49044490
_cell_angle_alpha   90.00000000
_cell_angle_beta   90.00000000
_cell_angle_gamma   90.00000000
_symmetry_Int_Tables_number   1
_chemical_formula_structural   Mo
_chemical_formula_sum   Mo16
_cell_volume   198.49479182
_cell_formula_units_Z   16
loop_
 _symmetry_equiv_pos_site_id
 _symmetry_equiv_pos_as_xyz
  1  'x, y, z'
loop_
 _atom_site_type_symbol
 _atom_site_label
 _atom_site_symmetry_multiplicity
 _atom_site_fract_x
 _atom_site_fract_y
 _atom_site_fract_z
 _atom_site_occupancy
  Mo  Mo0  1  -0.02916250  7.54434000  3.77221000  1
  Mo  Mo1  1  2.00934000  2.31003000  0.27419900  1
  Mo  Mo2  1  2.00605000  0.55277400  2.03674000  1
  Mo  Mo3  1  -0.02486850  2.30453000  2.01926000  1
  Mo  Mo4  1  4.03996000  7.54220000  3.77052000  1
  Mo  Mo5  1  6.08040000  2.29986000  0.27330700  1
  Mo  Mo6  1  6.08968000  0.56306400  2.03723000  1
  Mo  Mo7  1  4.05504000  2.29024000  2.01587000  1
  Mo  Mo8  1  8.12909000  4.04921000  0.29286900  1
  Mo  Mo9  1  2.00970000  5.79926000  0.27377600  1
  Mo  Mo10  1  2.00959000  4.05025000  2.03103000  1
  Mo  Mo11  1  -0.02348460  5.79154000  2.02398000  1
  Mo  Mo12  1  4.06097000  4.05216000  0.29130900  1
  Mo  Mo13  1  6.09464000  5.79745000  3.75639000  1
  Mo  Mo14  1  6.08887000  4.05111000  2.03059000  1
  Mo  Mo15  1  4.06003000  5.80197000  2.01028000  1
