# generated using pymatgen
data_Mo
_symmetry_space_group_name_H-M   'P 1'
_cell_length_a   8.71038106
_cell_length_b   6.83138114
_cell_length_c   3.40584540
_cell_angle_alpha   90.00000000
_cell_angle_beta   90.00000000
_cell_angle_gamma   90.00000000
_symmetry_Int_Tables_number   1
_chemical_formula_structural   Mo
_chemical_formula_sum   Mo16
_cell_volume   202.66119644
_cell_formula_units_Z   16
loop_
 _symmetry_equiv_pos_site_id
 _symmetry_equiv_pos_as_xyz
  1  'x, y, z'
loop_
 _atom_site_type_symbol
 _atom_site_label
 _atom_site_symmetry_multiplicity
 _atom_site_fract_x
 _atom_site_fract_y
 _atom_site_fract_z
 _atom_site_occupancy
  Mo  Mo0  1  1.87102000  2.33633000  0.31772400  1
  Mo  Mo1  1  1.86292000  0.62524200  2.03355000  1
  Mo  Mo2  1  -0.30571000  2.34329000  2.02492000  1
  Mo  Mo3  1  4.06054000  7.47087000  3.72529000  1
  Mo  Mo4  1  4.06401000  2.34777000  2.01803000  1
  Mo  Mo5  1  -0.31284600  4.05812000  3.73809000  1
  Mo  Mo6  1  1.86453000  5.75844000  0.31471500  1
  Mo  Mo7  1  1.86610000  4.03885000  2.04153000  1
  Mo  Mo8  1  -0.31345200  5.76665000  2.02350000  1
  Mo  Mo9  1  4.03709000  4.06239000  0.32598900  1
  Mo  Mo10  1  4.05974000  5.75618000  2.00553000  1
  Mo  Mo11  1  8.42174000  7.47413000  3.73128000  1
  Mo  Mo12  1  6.23179000  2.33148000  0.31769200  1
  Mo  Mo13  1  6.23443000  0.63049000  2.03116000  1
  Mo  Mo14  1  6.21799000  5.75477000  0.30730300  1
  Mo  Mo15  1  6.22973000  4.04501000  2.03784000  1
