# generated using pymatgen
data_Mo
_symmetry_space_group_name_H-M   'P 1'
_cell_length_a   8.59975471
_cell_length_b   6.84711224
_cell_length_c   3.42572808
_cell_angle_alpha   90.00000000
_cell_angle_beta   90.00000000
_cell_angle_gamma   90.00000000
_symmetry_Int_Tables_number   1
_chemical_formula_structural   Mo
_chemical_formula_sum   Mo16
_cell_volume   201.71881055
_cell_formula_units_Z   16
loop_
 _symmetry_equiv_pos_site_id
 _symmetry_equiv_pos_as_xyz
  1  'x, y, z'
loop_
 _atom_site_type_symbol
 _atom_site_label
 _atom_site_symmetry_multiplicity
 _atom_site_fract_x
 _atom_site_fract_y
 _atom_site_fract_z
 _atom_site_occupancy
  Mo  Mo0  1  1.89944000  2.34612000  0.30895800  1
  Mo  Mo1  1  1.90970000  0.63042600  2.02503000  1
  Mo  Mo2  1  -0.25274700  2.32580000  2.01804000  1
  Mo  Mo3  1  4.04060000  7.46663000  3.74674000  1
  Mo  Mo4  1  4.05094000  2.33232000  2.02625000  1
  Mo  Mo5  1  -0.24835600  4.04077000  3.74988000  1
  Mo  Mo6  1  1.90168000  5.77209000  0.29885600  1
  Mo  Mo7  1  1.90695000  4.05572000  2.03074000  1
  Mo  Mo8  1  -0.25702800  5.75743000  2.00834000  1
  Mo  Mo9  1  4.04127000  4.04597000  0.33156100  1
  Mo  Mo10  1  4.05140000  5.75399000  2.02095000  1
  Mo  Mo11  1  8.35456000  7.46819000  3.73926000  1
  Mo  Mo12  1  6.19378000  2.34821000  0.31076900  1
  Mo  Mo13  1  6.21762000  0.62770400  2.02416000  1
  Mo  Mo14  1  6.18932000  5.77572000  0.30353400  1
  Mo  Mo15  1  6.20112000  4.05291000  2.03121000  1
