# generated using pymatgen
data_Mo
_symmetry_space_group_name_H-M   'P 1'
_cell_length_a   8.51387402
_cell_length_b   6.87488294
_cell_length_c   3.43500042
_cell_angle_alpha   90.00000000
_cell_angle_beta   90.00000000
_cell_angle_gamma   90.00000000
_symmetry_Int_Tables_number   1
_chemical_formula_structural   Mo
_chemical_formula_sum   Mo16
_cell_volume   201.05705727
_cell_formula_units_Z   16
loop_
 _symmetry_equiv_pos_site_id
 _symmetry_equiv_pos_as_xyz
  1  'x, y, z'
loop_
 _atom_site_type_symbol
 _atom_site_label
 _atom_site_symmetry_multiplicity
 _atom_site_fract_x
 _atom_site_fract_y
 _atom_site_fract_z
 _atom_site_occupancy
  Mo  Mo0  1  1.92360000  2.32603000  0.29964300  1
  Mo  Mo1  1  1.91378000  0.61495000  2.02625000  1
  Mo  Mo2  1  -0.21431100  2.32488000  2.01743000  1
  Mo  Mo3  1  4.05539000  7.49390000  3.75512000  1
  Mo  Mo4  1  4.04668000  2.32554000  2.02348000  1
  Mo  Mo5  1  -0.21373600  4.05397000  3.74513000  1
  Mo  Mo6  1  1.92325000  5.76976000  0.29565200  1
  Mo  Mo7  1  1.91925000  4.05223000  2.03682000  1
  Mo  Mo8  1  -0.20420300  5.76845000  2.00848000  1
  Mo  Mo9  1  4.04879000  4.04876000  0.31489100  1
  Mo  Mo10  1  4.04999000  5.77122000  2.02395000  1
  Mo  Mo11  1  8.30150000  7.48827000  3.75040000  1
  Mo  Mo12  1  6.18917000  2.33368000  0.30123500  1
  Mo  Mo13  1  6.16556000  0.60754800  2.02595000  1
  Mo  Mo14  1  6.19076000  5.77249000  0.30319300  1
  Mo  Mo15  1  6.19064000  4.04831000  2.03737000  1
