# generated using pymatgen
data_Mo
_symmetry_space_group_name_H-M   'P 1'
_cell_length_a   8.62158850
_cell_length_b   6.83782160
_cell_length_c   3.42458487
_cell_angle_alpha   90.00000000
_cell_angle_beta   90.00000000
_cell_angle_gamma   90.00000000
_symmetry_Int_Tables_number   1
_chemical_formula_structural   Mo
_chemical_formula_sum   Mo16
_cell_volume   201.88915462
_cell_formula_units_Z   16
loop_
 _symmetry_equiv_pos_site_id
 _symmetry_equiv_pos_as_xyz
  1  'x, y, z'
loop_
 _atom_site_type_symbol
 _atom_site_label
 _atom_site_symmetry_multiplicity
 _atom_site_fract_x
 _atom_site_fract_y
 _atom_site_fract_z
 _atom_site_occupancy
  Mo  Mo0  1  1.89649000  2.33619000  0.31412300  1
  Mo  Mo1  1  1.88562000  0.62959600  2.03301000  1
  Mo  Mo2  1  -0.26578900  2.33819000  2.02607000  1
  Mo  Mo3  1  4.05867000  7.47062000  3.73359000  1
  Mo  Mo4  1  4.04579000  2.34216000  2.01154000  1
  Mo  Mo5  1  -0.26846000  4.05389000  3.75571000  1
  Mo  Mo6  1  1.89740000  5.76693000  0.30252500  1
  Mo  Mo7  1  1.89433000  4.04271000  2.03167000  1
  Mo  Mo8  1  -0.25919000  5.76533000  2.01533000  1
  Mo  Mo9  1  4.05018000  4.05025000  0.32134800  1
  Mo  Mo10  1  4.04605000  5.75767000  2.01336000  1
  Mo  Mo11  1  8.35369000  7.46801000  3.74317000  1
  Mo  Mo12  1  6.22068000  2.34181000  0.30944500  1
  Mo  Mo13  1  6.19414000  0.62513900  2.02872000  1
  Mo  Mo14  1  6.21396000  5.76684000  0.30655400  1
  Mo  Mo15  1  6.21484000  4.04469000  2.02927000  1
