# generated using pymatgen
data_Mo
_symmetry_space_group_name_H-M   'P 1'
_cell_length_a   7.47019994
_cell_length_b   7.19921908
_cell_length_c   3.60214114
_cell_angle_alpha   90.00000000
_cell_angle_beta   90.00000000
_cell_angle_gamma   90.00000000
_symmetry_Int_Tables_number   1
_chemical_formula_structural   Mo
_chemical_formula_sum   Mo16
_cell_volume   193.72173116
_cell_formula_units_Z   16
loop_
 _symmetry_equiv_pos_site_id
 _symmetry_equiv_pos_as_xyz
  1  'x, y, z'
loop_
 _atom_site_type_symbol
 _atom_site_label
 _atom_site_symmetry_multiplicity
 _atom_site_fract_x
 _atom_site_fract_y
 _atom_site_fract_z
 _atom_site_occupancy
  Mo  Mo0  1  0.31584800  7.65112000  3.82875000  1
  Mo  Mo1  1  2.19123000  2.24096000  0.23238700  1
  Mo  Mo2  1  2.20299000  0.45096400  2.01633000  1
  Mo  Mo3  1  0.32078900  2.25524000  2.03503000  1
  Mo  Mo4  1  4.05958000  7.65213000  3.81727000  1
  Mo  Mo5  1  5.92531000  2.24846000  0.22922900  1
  Mo  Mo6  1  5.92210000  0.44591000  2.01121000  1
  Mo  Mo7  1  4.04861000  2.25215000  2.02876000  1
  Mo  Mo8  1  7.77673000  4.05728000  0.23248000  1
  Mo  Mo9  1  2.18009000  5.84866000  0.22091000  1
  Mo  Mo10  1  2.16769000  4.04721000  2.03592000  1
  Mo  Mo11  1  0.31227800  5.84998000  2.02086000  1
  Mo  Mo12  1  4.04657000  4.05124000  0.22099000  1
  Mo  Mo13  1  5.92025000  5.85210000  3.82082000  1
  Mo  Mo14  1  5.90562000  4.04298000  2.03097000  1
  Mo  Mo15  1  4.03412000  5.85361000  2.01594000  1
