# generated using pymatgen
data_Mo
_symmetry_space_group_name_H-M   'P 1'
_cell_length_a   8.30135406
_cell_length_b   6.93401653
_cell_length_c   3.46740460
_cell_angle_alpha   90.00000000
_cell_angle_beta   90.00000000
_cell_angle_gamma   90.00000000
_symmetry_Int_Tables_number   1
_chemical_formula_structural   Mo
_chemical_formula_sum   Mo16
_cell_volume   199.58979452
_cell_formula_units_Z   16
loop_
 _symmetry_equiv_pos_site_id
 _symmetry_equiv_pos_as_xyz
  1  'x, y, z'
loop_
 _atom_site_type_symbol
 _atom_site_label
 _atom_site_symmetry_multiplicity
 _atom_site_fract_x
 _atom_site_fract_y
 _atom_site_fract_z
 _atom_site_occupancy
  Mo  Mo0  1  1.98200000  2.30857000  0.29793000  1
  Mo  Mo1  1  1.99100000  0.58523700  2.02440000  1
  Mo  Mo2  1  -0.09814470  2.31931000  2.02653000  1
  Mo  Mo3  1  4.05534000  7.51559000  3.74542000  1
  Mo  Mo4  1  4.05736000  2.31447000  2.02797000  1
  Mo  Mo5  1  -0.10485500  4.05341000  3.76712000  1
  Mo  Mo6  1  1.96719000  5.78447000  0.29668200  1
  Mo  Mo7  1  1.97085000  4.05055000  2.02437000  1
  Mo  Mo8  1  -0.10506200  5.78203000  2.02978000  1
  Mo  Mo9  1  4.03233000  4.05024000  0.28724900  1
  Mo  Mo10  1  4.04720000  5.78833000  2.01868000  1
  Mo  Mo11  1  8.21895000  7.51740000  3.75773000  1
  Mo  Mo12  1  6.11611000  2.31523000  0.29995500  1
  Mo  Mo13  1  6.13324000  0.58023700  2.01969000  1
  Mo  Mo14  1  6.11138000  5.79053000  0.29092100  1
  Mo  Mo15  1  6.12376000  4.04438000  2.01817000  1
