# generated using pymatgen
data_Mo
_symmetry_space_group_name_H-M   'P 1'
_cell_length_a   8.31154323
_cell_length_b   6.93284464
_cell_length_c   3.46497655
_cell_angle_alpha   90.00000000
_cell_angle_beta   90.00000000
_cell_angle_gamma   90.00000000
_symmetry_Int_Tables_number   1
_chemical_formula_structural   Mo
_chemical_formula_sum   Mo16
_cell_volume   199.66108901
_cell_formula_units_Z   16
loop_
 _symmetry_equiv_pos_site_id
 _symmetry_equiv_pos_as_xyz
  1  'x, y, z'
loop_
 _atom_site_type_symbol
 _atom_site_label
 _atom_site_symmetry_multiplicity
 _atom_site_fract_x
 _atom_site_fract_y
 _atom_site_fract_z
 _atom_site_occupancy
  Mo  Mo0  1  1.96792000  2.32541000  0.28018500  1
  Mo  Mo1  1  1.97104000  0.58650500  2.03148000  1
  Mo  Mo2  1  -0.10660700  2.30561000  2.02223000  1
  Mo  Mo3  1  4.05152000  7.51652000  3.77465000  1
  Mo  Mo4  1  4.04984000  2.31749000  2.01429000  1
  Mo  Mo5  1  -0.10823400  4.04627000  3.75165000  1
  Mo  Mo6  1  1.97741000  5.78988000  0.28812500  1
  Mo  Mo7  1  1.96716000  4.05089000  2.02648000  1
  Mo  Mo8  1  -0.10466500  5.78301000  2.02547000  1
  Mo  Mo9  1  4.05228000  4.04419000  0.29227400  1
  Mo  Mo10  1  4.04785000  5.76901000  2.02943000  1
  Mo  Mo11  1  8.19739000  7.50983000  3.76941000  1
  Mo  Mo12  1  6.13941000  2.32423000  0.27526000  1
  Mo  Mo13  1  6.12631000  0.58817300  2.03319000  1
  Mo  Mo14  1  6.13199000  5.78104000  0.29120000  1
  Mo  Mo15  1  6.12784000  4.06193000  2.02971000  1
