# generated using pymatgen
data_Mo
_symmetry_space_group_name_H-M   'P 1'
_cell_length_a   8.25331913
_cell_length_b   6.94918287
_cell_length_c   3.47432733
_cell_angle_alpha   90.00000000
_cell_angle_beta   90.00000000
_cell_angle_gamma   90.00000000
_symmetry_Int_Tables_number   1
_chemical_formula_structural   Mo
_chemical_formula_sum   Mo16
_cell_volume   199.26595761
_cell_formula_units_Z   16
loop_
 _symmetry_equiv_pos_site_id
 _symmetry_equiv_pos_as_xyz
  1  'x, y, z'
loop_
 _atom_site_type_symbol
 _atom_site_label
 _atom_site_symmetry_multiplicity
 _atom_site_fract_x
 _atom_site_fract_y
 _atom_site_fract_z
 _atom_site_occupancy
  Mo  Mo0  1  1.98718000  2.31990000  0.28759800  1
  Mo  Mo1  1  1.98568000  0.57880500  2.02658000  1
  Mo  Mo2  1  -0.07428400  2.30898000  2.02769000  1
  Mo  Mo3  1  4.03580000  7.51720000  3.75658000  1
  Mo  Mo4  1  4.04711000  2.30102000  2.03025000  1
  Mo  Mo5  1  -0.06550270  4.04169000  3.75678000  1
  Mo  Mo6  1  1.99020000  5.79263000  0.29493200  1
  Mo  Mo7  1  1.99554000  4.05886000  2.01109000  1
  Mo  Mo8  1  -0.07195570  5.77931000  2.03919000  1
  Mo  Mo9  1  4.05661000  4.04455000  0.28384500  1
  Mo  Mo10  1  4.05366000  5.78767000  2.03536000  1
  Mo  Mo11  1  8.17243000  7.52101000  3.75546000  1
  Mo  Mo12  1  6.10079000  2.31399000  0.28838400  1
  Mo  Mo13  1  6.10941000  0.58389900  2.02841000  1
  Mo  Mo14  1  6.11328000  5.79380000  0.29110400  1
  Mo  Mo15  1  6.11072000  4.05669000  2.01243000  1
