# generated using pymatgen
data_Mo
_symmetry_space_group_name_H-M   'P 1'
_cell_length_a   7.59392688
_cell_length_b   7.15564939
_cell_length_c   3.57899785
_cell_angle_alpha   90.00000000
_cell_angle_beta   90.00000000
_cell_angle_gamma   90.00000000
_symmetry_Int_Tables_number   1
_chemical_formula_structural   Mo
_chemical_formula_sum   Mo16
_cell_volume   194.48087586
_cell_formula_units_Z   16
loop_
 _symmetry_equiv_pos_site_id
 _symmetry_equiv_pos_as_xyz
  1  'x, y, z'
loop_
 _atom_site_type_symbol
 _atom_site_label
 _atom_site_symmetry_multiplicity
 _atom_site_fract_x
 _atom_site_fract_y
 _atom_site_fract_z
 _atom_site_occupancy
  Mo  Mo0  1  0.26134500  7.62176000  3.80836000  1
  Mo  Mo1  1  2.15523000  2.26619000  0.24013800  1
  Mo  Mo2  1  2.15036000  0.47556600  2.02154000  1
  Mo  Mo3  1  0.26584600  2.25906000  2.03080000  1
  Mo  Mo4  1  4.05926000  7.61763000  3.80956000  1
  Mo  Mo5  1  5.94884000  2.25832000  0.23959600  1
  Mo  Mo6  1  5.94694000  0.48318300  2.02178000  1
  Mo  Mo7  1  4.04577000  2.25440000  2.02834000  1
  Mo  Mo8  1  7.83384000  4.03961000  0.23052400  1
  Mo  Mo9  1  2.14729000  5.84476000  0.24701300  1
  Mo  Mo10  1  2.16059000  4.05447000  2.00709000  1
  Mo  Mo11  1  0.25909700  5.83746000  2.04120000  1
  Mo  Mo12  1  4.04472000  4.04675000  0.23148800  1
  Mo  Mo13  1  5.94368000  5.84388000  3.82247000  1
  Mo  Mo14  1  5.93604000  4.05737000  2.00691000  1
  Mo  Mo15  1  4.04723000  5.83959000  2.03421000  1
