# generated using pymatgen
data_Mo
_symmetry_space_group_name_H-M   'P 1'
_cell_length_a   7.73657668
_cell_length_b   7.10776484
_cell_length_c   3.55432224
_cell_angle_alpha   90.00000000
_cell_angle_beta   90.00000000
_cell_angle_gamma   90.00000000
_symmetry_Int_Tables_number   1
_chemical_formula_structural   Mo
_chemical_formula_sum   Mo16
_cell_volume   195.45135440
_cell_formula_units_Z   16
loop_
 _symmetry_equiv_pos_site_id
 _symmetry_equiv_pos_as_xyz
  1  'x, y, z'
loop_
 _atom_site_type_symbol
 _atom_site_label
 _atom_site_symmetry_multiplicity
 _atom_site_fract_x
 _atom_site_fract_y
 _atom_site_fract_z
 _atom_site_occupancy
  Mo  Mo0  1  0.18848300  7.61319000  3.81339000  1
  Mo  Mo1  1  2.12401000  2.27260000  0.24402100  1
  Mo  Mo2  1  2.11605000  0.49209500  2.03440000  1
  Mo  Mo3  1  0.19333400  2.27376000  2.02678000  1
  Mo  Mo4  1  4.05501000  7.60214000  3.80354000  1
  Mo  Mo5  1  5.98932000  2.26919000  0.23533600  1
  Mo  Mo6  1  5.99455000  0.49509900  2.03015000  1
  Mo  Mo7  1  4.05198000  2.26844000  2.01241000  1
  Mo  Mo8  1  7.91339000  4.05014000  0.25206800  1
  Mo  Mo9  1  2.11412000  5.82571000  0.24252800  1
  Mo  Mo10  1  2.10571000  4.04986000  2.03755000  1
  Mo  Mo11  1  0.17801300  5.82367000  2.02152000  1
  Mo  Mo12  1  4.05172000  4.05770000  0.24235600  1
  Mo  Mo13  1  5.98598000  5.83192000  3.79613000  1
  Mo  Mo14  1  5.95520000  4.04608000  2.03435000  1
  Mo  Mo15  1  4.04654000  5.82842000  2.01913000  1
