# generated using pymatgen
data_Mo
_symmetry_space_group_name_H-M   'P 1'
_cell_length_a   7.34065071
_cell_length_b   7.25252756
_cell_length_c   3.62626386
_cell_angle_alpha   90.00000000
_cell_angle_beta   90.00000000
_cell_angle_gamma   90.00000000
_symmetry_Int_Tables_number   1
_chemical_formula_structural   Mo
_chemical_formula_sum   Mo16
_cell_volume   193.05602010
_cell_formula_units_Z   16
loop_
 _symmetry_equiv_pos_site_id
 _symmetry_equiv_pos_as_xyz
  1  'x, y, z'
loop_
 _atom_site_type_symbol
 _atom_site_label
 _atom_site_symmetry_multiplicity
 _atom_site_fract_x
 _atom_site_fract_y
 _atom_site_fract_z
 _atom_site_occupancy
  Mo  Mo0  1  0.36121500  7.67980000  3.85012000  1
  Mo  Mo1  1  2.20004000  2.23160000  0.19764900  1
  Mo  Mo2  1  2.21219000  0.42191900  2.03095000  1
  Mo  Mo3  1  0.37581200  2.23690000  2.00407000  1
  Mo  Mo4  1  4.04394000  7.68184000  3.85684000  1
  Mo  Mo5  1  5.88622000  2.23670000  0.20697900  1
  Mo  Mo6  1  5.88349000  0.41408400  2.03349000  1
  Mo  Mo7  1  4.04054000  2.24991000  2.02097000  1
  Mo  Mo8  1  7.72763000  4.05738000  0.20606600  1
  Mo  Mo9  1  2.21918000  5.86022000  0.21392700  1
  Mo  Mo10  1  2.22655000  4.04338000  2.02552000  1
  Mo  Mo11  1  0.38462800  5.86804000  2.01967000  1
  Mo  Mo12  1  4.06634000  4.05604000  0.21274800  1
  Mo  Mo13  1  5.88876000  5.86189000  3.84214000  1
  Mo  Mo14  1  5.89446000  4.04195000  2.02713000  1
  Mo  Mo15  1  4.04836000  5.85835000  2.02546000  1
