# generated using pymatgen
data_Mo
_symmetry_space_group_name_H-M   'P 1'
_cell_length_a   8.21983975
_cell_length_b   6.95807385
_cell_length_c   3.47993398
_cell_angle_alpha   90.00000000
_cell_angle_beta   90.00000000
_cell_angle_gamma   90.00000000
_symmetry_Int_Tables_number   1
_chemical_formula_structural   Mo
_chemical_formula_sum   Mo16
_cell_volume   199.03222096
_cell_formula_units_Z   16
loop_
 _symmetry_equiv_pos_site_id
 _symmetry_equiv_pos_as_xyz
  1  'x, y, z'
loop_
 _atom_site_type_symbol
 _atom_site_label
 _atom_site_symmetry_multiplicity
 _atom_site_fract_x
 _atom_site_fract_y
 _atom_site_fract_z
 _atom_site_occupancy
  Mo  Mo0  1  1.99122000  2.30269000  0.27684300  1
  Mo  Mo1  1  1.98618000  0.57023200  2.03235000  1
  Mo  Mo2  1  -0.06652940  2.31549000  2.01872000  1
  Mo  Mo3  1  4.04742000  7.52846000  3.76899000  1
  Mo  Mo4  1  4.05182000  2.30797000  2.01993000  1
  Mo  Mo5  1  -0.06354180  4.05067000  3.75885000  1
  Mo  Mo6  1  1.98757000  5.78396000  0.29042900  1
  Mo  Mo7  1  2.00568000  4.05214000  2.03128000  1
  Mo  Mo8  1  -0.06720260  5.78975000  2.03053000  1
  Mo  Mo9  1  4.04654000  4.05661000  0.27083800  1
  Mo  Mo10  1  4.05897000  5.79715000  2.02383000  1
  Mo  Mo11  1  8.16422000  7.53667000  3.77694000  1
  Mo  Mo12  1  6.10009000  2.30283000  0.27899400  1
  Mo  Mo13  1  6.11577000  0.56896000  2.02800000  1
  Mo  Mo14  1  6.10437000  5.79236000  0.28739500  1
  Mo  Mo15  1  6.11758000  4.04405000  2.02616000  1
