# generated using pymatgen
data_Mo
_symmetry_space_group_name_H-M   'P 1'
_cell_length_a   7.92289551
_cell_length_b   7.04870158
_cell_length_c   3.52436948
_cell_angle_alpha   90.00000000
_cell_angle_beta   90.00000000
_cell_angle_gamma   90.00000000
_symmetry_Int_Tables_number   1
_chemical_formula_structural   Mo
_chemical_formula_sum   Mo16
_cell_volume   196.82238232
_cell_formula_units_Z   16
loop_
 _symmetry_equiv_pos_site_id
 _symmetry_equiv_pos_as_xyz
  1  'x, y, z'
loop_
 _atom_site_type_symbol
 _atom_site_label
 _atom_site_symmetry_multiplicity
 _atom_site_fract_x
 _atom_site_fract_y
 _atom_site_fract_z
 _atom_site_occupancy
  Mo  Mo0  1  0.09466740  7.56756000  3.80266000  1
  Mo  Mo1  1  2.08048000  2.29056000  0.25431000  1
  Mo  Mo2  1  2.07781000  0.52992600  2.03906000  1
  Mo  Mo3  1  0.08635970  2.28194000  2.02182000  1
  Mo  Mo4  1  4.04509000  7.57116000  3.79447000  1
  Mo  Mo5  1  6.02796000  2.29280000  0.24758200  1
  Mo  Mo6  1  6.02664000  0.52987400  2.03392000  1
  Mo  Mo7  1  4.05345000  2.27928000  2.00721000  1
  Mo  Mo8  1  8.01207000  4.04698000  0.27268700  1
  Mo  Mo9  1  2.07544000  5.82326000  0.26004500  1
  Mo  Mo10  1  2.06618000  4.05307000  2.02289000  1
  Mo  Mo11  1  0.08750410  5.80808000  2.02725000  1
  Mo  Mo12  1  4.03535000  4.04279000  0.26483100  1
  Mo  Mo13  1  6.02660000  5.82076000  3.78467000  1
  Mo  Mo14  1  6.03313000  4.05485000  2.01865000  1
  Mo  Mo15  1  4.04838000  5.80710000  2.02358000  1
