# generated using pymatgen
data_Mo
_symmetry_space_group_name_H-M   'P 1'
_cell_length_a   7.43963197
_cell_length_b   7.21339241
_cell_length_c   3.60657382
_cell_angle_alpha   90.00000000
_cell_angle_beta   90.00000000
_cell_angle_gamma   90.00000000
_symmetry_Int_Tables_number   1
_chemical_formula_structural   Mo
_chemical_formula_sum   Mo16
_cell_volume   193.54672906
_cell_formula_units_Z   16
loop_
 _symmetry_equiv_pos_site_id
 _symmetry_equiv_pos_as_xyz
  1  'x, y, z'
loop_
 _atom_site_type_symbol
 _atom_site_label
 _atom_site_symmetry_multiplicity
 _atom_site_fract_x
 _atom_site_fract_y
 _atom_site_fract_z
 _atom_site_occupancy
  Mo  Mo0  1  0.33725000  7.64721000  3.81657000  1
  Mo  Mo1  1  2.19311000  2.24989000  0.23519200  1
  Mo  Mo2  1  2.18878000  0.44713200  2.01758000  1
  Mo  Mo3  1  0.33511100  2.24386000  2.04269000  1
  Mo  Mo4  1  4.06677000  7.65271000  3.81474000  1
  Mo  Mo5  1  5.92310000  2.24527000  0.22729200  1
  Mo  Mo6  1  5.90269000  0.45290000  2.01688000  1
  Mo  Mo7  1  4.04971000  2.24795000  2.02837000  1
  Mo  Mo8  1  7.75783000  4.04655000  0.22379300  1
  Mo  Mo9  1  2.19053000  5.86183000  0.22607000  1
  Mo  Mo10  1  2.18217000  4.04987000  2.01282000  1
  Mo  Mo11  1  0.33258700  5.85302000  2.03563000  1
  Mo  Mo12  1  4.04463000  4.04332000  0.22185200  1
  Mo  Mo13  1  5.90949000  5.85420000  3.83075000  1
  Mo  Mo14  1  5.90270000  4.05914000  2.01293000  1
  Mo  Mo15  1  4.04391000  5.84515000  2.03027000  1
