# generated using pymatgen
data_Mo
_symmetry_space_group_name_H-M   'P 1'
_cell_length_a   7.70018637
_cell_length_b   7.12139082
_cell_length_c   3.55970168
_cell_angle_alpha   90.00000000
_cell_angle_beta   90.00000000
_cell_angle_gamma   90.00000000
_symmetry_Int_Tables_number   1
_chemical_formula_structural   Mo
_chemical_formula_sum   Mo16
_cell_volume   195.19993145
_cell_formula_units_Z   16
loop_
 _symmetry_equiv_pos_site_id
 _symmetry_equiv_pos_as_xyz
  1  'x, y, z'
loop_
 _atom_site_type_symbol
 _atom_site_label
 _atom_site_symmetry_multiplicity
 _atom_site_fract_x
 _atom_site_fract_y
 _atom_site_fract_z
 _atom_site_occupancy
  Mo  Mo0  1  0.21901900  7.61129000  3.80277000  1
  Mo  Mo1  1  2.13526000  2.25954000  0.25068500  1
  Mo  Mo2  1  2.13578000  0.49233000  2.01884000  1
  Mo  Mo3  1  0.20620400  2.27780000  2.03549000  1
  Mo  Mo4  1  4.05541000  7.60807000  3.79136000  1
  Mo  Mo5  1  5.96659000  2.26341000  0.25248400  1
  Mo  Mo6  1  5.97959000  0.49117500  2.01322000  1
  Mo  Mo7  1  4.05921000  2.26734000  2.03516000  1
  Mo  Mo8  1  7.89427000  4.05089000  0.23974100  1
  Mo  Mo9  1  2.11656000  5.82697000  0.25618300  1
  Mo  Mo10  1  2.11907000  4.05324000  2.02124000  1
  Mo  Mo11  1  0.19754500  5.82865000  2.04143000  1
  Mo  Mo12  1  4.03274000  4.05086000  0.22814700  1
  Mo  Mo13  1  5.96340000  5.83343000  3.80970000  1
  Mo  Mo14  1  5.96878000  4.04638000  2.01468000  1
  Mo  Mo15  1  4.05040000  5.83863000  2.02918000  1
