# generated using pymatgen
data_Mo
_symmetry_space_group_name_H-M   'P 1'
_cell_length_a   8.63032222
_cell_length_b   6.85351211
_cell_length_c   3.41457772
_cell_angle_alpha   90.00000000
_cell_angle_beta   90.00000000
_cell_angle_gamma   90.00000000
_symmetry_Int_Tables_number   1
_chemical_formula_structural   Mo
_chemical_formula_sum   Mo16
_cell_volume   201.96550398
_cell_formula_units_Z   16
loop_
 _symmetry_equiv_pos_site_id
 _symmetry_equiv_pos_as_xyz
  1  'x, y, z'
loop_
 _atom_site_type_symbol
 _atom_site_label
 _atom_site_symmetry_multiplicity
 _atom_site_fract_x
 _atom_site_fract_y
 _atom_site_fract_z
 _atom_site_occupancy
  Mo  Mo0  1  1.88535000  2.34203000  0.31853500  1
  Mo  Mo1  1  1.89296000  0.63147300  2.01254000  1
  Mo  Mo2  1  -0.26898600  2.32429000  2.03619000  1
  Mo  Mo3  1  4.03161000  7.47061000  3.73023000  1
  Mo  Mo4  1  4.04877000  2.33442000  2.03561000  1
  Mo  Mo5  1  -0.24288800  4.04294000  3.72844000  1
  Mo  Mo6  1  1.90335000  5.76954000  0.31659700  1
  Mo  Mo7  1  1.90179000  4.05746000  2.02888000  1
  Mo  Mo8  1  -0.26141200  5.76144000  2.03268000  1
  Mo  Mo9  1  4.05764000  4.04212000  0.31339300  1
  Mo  Mo10  1  4.05285000  5.75089000  2.02291000  1
  Mo  Mo11  1  8.35585000  7.46875000  3.73037000  1
  Mo  Mo12  1  6.19716000  2.34008000  0.32023100  1
  Mo  Mo13  1  6.20237000  0.63425300  2.01534000  1
  Mo  Mo14  1  6.19800000  5.76430000  0.31245600  1
  Mo  Mo15  1  6.21525000  4.06541000  2.03103000  1
