# generated using pymatgen
data_Mo
_symmetry_space_group_name_H-M   'P 1'
_cell_length_a   7.94472931
_cell_length_b   7.04287362
_cell_length_c   3.52057695
_cell_angle_alpha   90.00000000
_cell_angle_beta   90.00000000
_cell_angle_gamma   90.00000000
_symmetry_Int_Tables_number   1
_chemical_formula_structural   Mo
_chemical_formula_sum   Mo16
_cell_volume   196.98939280
_cell_formula_units_Z   16
loop_
 _symmetry_equiv_pos_site_id
 _symmetry_equiv_pos_as_xyz
  1  'x, y, z'
loop_
 _atom_site_type_symbol
 _atom_site_label
 _atom_site_symmetry_multiplicity
 _atom_site_fract_x
 _atom_site_fract_y
 _atom_site_fract_z
 _atom_site_occupancy
  Mo  Mo0  1  0.07475180  7.56539000  3.78586000  1
  Mo  Mo1  1  2.06111000  2.29917000  0.25259700  1
  Mo  Mo2  1  2.06395000  0.53257400  2.03281000  1
  Mo  Mo3  1  0.07807310  2.28814000  2.01516000  1
  Mo  Mo4  1  4.04012000  7.56686000  3.79511000  1
  Mo  Mo5  1  6.02166000  2.29479000  0.25796800  1
  Mo  Mo6  1  6.03040000  0.53646900  2.03622000  1
  Mo  Mo7  1  4.04510000  2.27828000  2.02372000  1
  Mo  Mo8  1  8.02872000  4.04604000  0.27285600  1
  Mo  Mo9  1  2.06255000  5.81851000  0.25024700  1
  Mo  Mo10  1  2.07829000  4.05467000  2.03017000  1
  Mo  Mo11  1  0.08416260  5.79462000  2.01462000  1
  Mo  Mo12  1  4.05480000  4.04809000  0.28225100  1
  Mo  Mo13  1  6.03320000  5.82043000  3.77479000  1
  Mo  Mo14  1  6.04497000  4.05113000  2.03341000  1
  Mo  Mo15  1  4.05343000  5.80483000  2.02164000  1
