# generated using pymatgen
data_Mo
_symmetry_space_group_name_H-M   'P 1'
_cell_length_a   8.51096214
_cell_length_b   6.85679650
_cell_length_c   3.44480252
_cell_angle_alpha   90.00000000
_cell_angle_beta   90.00000000
_cell_angle_gamma   90.00000000
_symmetry_Int_Tables_number   1
_chemical_formula_structural   Mo
_chemical_formula_sum   Mo16
_cell_volume   201.03156330
_cell_formula_units_Z   16
loop_
 _symmetry_equiv_pos_site_id
 _symmetry_equiv_pos_as_xyz
  1  'x, y, z'
loop_
 _atom_site_type_symbol
 _atom_site_label
 _atom_site_symmetry_multiplicity
 _atom_site_fract_x
 _atom_site_fract_y
 _atom_site_fract_z
 _atom_site_occupancy
  Mo  Mo0  1  1.92205000  2.33505000  0.29500800  1
  Mo  Mo1  1  1.91046000  0.62744500  2.02301000  1
  Mo  Mo2  1  -0.21587900  2.32790000  2.02217000  1
  Mo  Mo3  1  4.04685000  7.47926000  3.75455000  1
  Mo  Mo4  1  4.04763000  2.32590000  2.03087000  1
  Mo  Mo5  1  -0.20655600  4.05029000  3.75266000  1
  Mo  Mo6  1  1.92296000  5.76845000  0.28815700  1
  Mo  Mo7  1  1.92636000  4.05582000  2.03969000  1
  Mo  Mo8  1  -0.20479400  5.75488000  2.01187000  1
  Mo  Mo9  1  4.05131000  4.04749000  0.31018300  1
  Mo  Mo10  1  4.05519000  5.76198000  2.02199000  1
  Mo  Mo11  1  8.29723000  7.47776000  3.75222000  1
  Mo  Mo12  1  6.18146000  2.34183000  0.29772000  1
  Mo  Mo13  1  6.16887000  0.62188200  2.02358000  1
  Mo  Mo14  1  6.19059000  5.77389000  0.29176600  1
  Mo  Mo15  1  6.19531000  4.05018000  2.03975000  1
