# generated using pymatgen
data_Mo
_symmetry_space_group_name_H-M   'P 1'
_cell_length_a   7.61284974
_cell_length_b   7.14985803
_cell_length_c   3.57532716
_cell_angle_alpha   90.00000000
_cell_angle_beta   90.00000000
_cell_angle_gamma   90.00000000
_symmetry_Int_Tables_number   1
_chemical_formula_structural   Mo
_chemical_formula_sum   Mo16
_cell_volume   194.60789903
_cell_formula_units_Z   16
loop_
 _symmetry_equiv_pos_site_id
 _symmetry_equiv_pos_as_xyz
  1  'x, y, z'
loop_
 _atom_site_type_symbol
 _atom_site_label
 _atom_site_symmetry_multiplicity
 _atom_site_fract_x
 _atom_site_fract_y
 _atom_site_fract_z
 _atom_site_occupancy
  Mo  Mo0  1  0.24543700  7.62195000  3.81552000  1
  Mo  Mo1  1  2.14234000  2.26724000  0.23337700  1
  Mo  Mo2  1  2.14556000  0.47814600  2.02545000  1
  Mo  Mo3  1  0.23846100  2.25689000  2.01839000  1
  Mo  Mo4  1  4.04583000  7.62269000  3.81634000  1
  Mo  Mo5  1  5.94187000  2.26986000  0.23896900  1
  Mo  Mo6  1  5.94751000  0.47562700  2.02583000  1
  Mo  Mo7  1  4.05078000  2.25555000  2.02604000  1
  Mo  Mo8  1  7.86449000  4.04513000  0.24853100  1
  Mo  Mo9  1  2.14402000  5.84332000  0.22914500  1
  Mo  Mo10  1  2.15537000  4.05452000  2.03290000  1
  Mo  Mo11  1  0.24604400  5.83419000  2.01568000  1
  Mo  Mo12  1  4.04920000  4.04424000  0.24976900  1
  Mo  Mo13  1  5.94775000  5.84251000  3.80329000  1
  Mo  Mo14  1  5.96727000  4.05326000  2.03226000  1
  Mo  Mo15  1  4.05522000  5.83489000  2.01319000  1
