# generated using pymatgen
data_Mo
_symmetry_space_group_name_H-M   'P 1'
_cell_length_a   8.15433740
_cell_length_b   6.98026997
_cell_length_c   3.48867297
_cell_angle_alpha   90.00000000
_cell_angle_beta   90.00000000
_cell_angle_gamma   90.00000000
_symmetry_Int_Tables_number   1
_chemical_formula_structural   Mo
_chemical_formula_sum   Mo16
_cell_volume   198.57343904
_cell_formula_units_Z   16
loop_
 _symmetry_equiv_pos_site_id
 _symmetry_equiv_pos_as_xyz
  1  'x, y, z'
loop_
 _atom_site_type_symbol
 _atom_site_label
 _atom_site_symmetry_multiplicity
 _atom_site_fract_x
 _atom_site_fract_y
 _atom_site_fract_z
 _atom_site_occupancy
  Mo  Mo0  1  -0.01431900  7.53660000  3.77795000  1
  Mo  Mo1  1  2.02427000  2.30493000  0.28263000  1
  Mo  Mo2  1  2.01592000  0.56849600  2.01915000  1
  Mo  Mo3  1  -0.01785230  2.30799000  2.03228000  1
  Mo  Mo4  1  4.06457000  7.52924000  3.76730000  1
  Mo  Mo5  1  6.09604000  2.31069000  0.28023900  1
  Mo  Mo6  1  6.08742000  0.56326000  2.01358000  1
  Mo  Mo7  1  4.04434000  2.30846000  2.02741000  1
  Mo  Mo8  1  8.11254000  4.04369000  0.26944100  1
  Mo  Mo9  1  2.01200000  5.79241000  0.29376300  1
  Mo  Mo10  1  2.01232000  4.05635000  2.01638000  1
  Mo  Mo11  1  -0.02684260  5.78955000  2.03958000  1
  Mo  Mo12  1  4.03859000  4.04723000  0.25937400  1
  Mo  Mo13  1  6.08611000  5.79956000  3.78275000  1
  Mo  Mo14  1  6.07151000  4.05084000  2.01104000  1
  Mo  Mo15  1  4.03904000  5.79069000  2.03846000  1
