# generated using pymatgen
data_Mo
_symmetry_space_group_name_H-M   'P 1'
_cell_length_a   8.35521178
_cell_length_b   6.92222816
_cell_length_c   3.45730853
_cell_angle_alpha   90.00000000
_cell_angle_beta   90.00000000
_cell_angle_gamma   90.00000000
_symmetry_Int_Tables_number   1
_chemical_formula_structural   Mo
_chemical_formula_sum   Mo16
_cell_volume   199.95925491
_cell_formula_units_Z   16
loop_
 _symmetry_equiv_pos_site_id
 _symmetry_equiv_pos_as_xyz
  1  'x, y, z'
loop_
 _atom_site_type_symbol
 _atom_site_label
 _atom_site_symmetry_multiplicity
 _atom_site_fract_x
 _atom_site_fract_y
 _atom_site_fract_z
 _atom_site_occupancy
  Mo  Mo0  1  1.95589000  2.31814000  0.29113200  1
  Mo  Mo1  1  1.95664000  0.58392600  2.02347000  1
  Mo  Mo2  1  -0.13484900  2.31716000  2.01946000  1
  Mo  Mo3  1  4.03357000  7.51517000  3.76366000  1
  Mo  Mo4  1  4.04511000  2.31743000  2.02642000  1
  Mo  Mo5  1  -0.11481800  4.05380000  3.75473000  1
  Mo  Mo6  1  1.96691000  5.78576000  0.28464300  1
  Mo  Mo7  1  1.97865000  4.04362000  2.04171000  1
  Mo  Mo8  1  -0.12729200  5.78237000  2.01106000  1
  Mo  Mo9  1  4.05395000  4.05651000  0.30865700  1
  Mo  Mo10  1  4.05659000  5.78111000  2.01203000  1
  Mo  Mo11  1  8.22249000  7.51366000  3.75252000  1
  Mo  Mo12  1  6.12759000  2.31122000  0.29392800  1
  Mo  Mo13  1  6.13730000  0.59026200  2.02900000  1
  Mo  Mo14  1  6.13468000  5.78121000  0.28365900  1
  Mo  Mo15  1  6.15238000  4.04865000  2.04661000  1
