# generated using pymatgen
data_Mo
_symmetry_space_group_name_H-M   'P 1'
_cell_length_a   7.31153819
_cell_length_b   7.26422432
_cell_length_c   3.63248205
_cell_angle_alpha   90.00000000
_cell_angle_beta   90.00000000
_cell_angle_gamma   90.00000000
_symmetry_Int_Tables_number   1
_chemical_formula_structural   Mo
_chemical_formula_sum   Mo16
_cell_volume   192.93076071
_cell_formula_units_Z   16
loop_
 _symmetry_equiv_pos_site_id
 _symmetry_equiv_pos_as_xyz
  1  'x, y, z'
loop_
 _atom_site_type_symbol
 _atom_site_label
 _atom_site_symmetry_multiplicity
 _atom_site_fract_x
 _atom_site_fract_y
 _atom_site_fract_z
 _atom_site_occupancy
  Mo  Mo0  1  0.39566900  7.68820000  3.84320000  1
  Mo  Mo1  1  2.22211000  2.23422000  0.20500000  1
  Mo  Mo2  1  2.21954000  0.41798500  2.02210000  1
  Mo  Mo3  1  0.39915800  2.23849000  2.02524000  1
  Mo  Mo4  1  4.05408000  7.67863000  3.83975000  1
  Mo  Mo5  1  5.87658000  2.23478000  0.20991500  1
  Mo  Mo6  1  5.88739000  0.41624700  2.02124000  1
  Mo  Mo7  1  4.04890000  2.23203000  2.03361000  1
  Mo  Mo8  1  7.70398000  4.04840000  0.20869200  1
  Mo  Mo9  1  2.21434000  5.86089000  0.20675900  1
  Mo  Mo10  1  2.22023000  4.05408000  2.03140000  1
  Mo  Mo11  1  0.39089100  5.85943000  2.02720000  1
  Mo  Mo12  1  4.05835000  4.05440000  0.20543100  1
  Mo  Mo13  1  5.88112000  5.86892000  3.83572000  1
  Mo  Mo14  1  5.86695000  4.04572000  2.02944000  1
  Mo  Mo15  1  4.04918000  5.86758000  2.02282000  1
