# generated using pymatgen
data_Mo
_symmetry_space_group_name_H-M   'P 1'
_cell_length_a   7.77151151
_cell_length_b   7.09594882
_cell_length_c   3.54867148
_cell_angle_alpha   90.00000000
_cell_angle_beta   90.00000000
_cell_angle_gamma   90.00000000
_symmetry_Int_Tables_number   1
_chemical_formula_structural   Mo
_chemical_formula_sum   Mo16
_cell_volume   195.69591735
_cell_formula_units_Z   16
loop_
 _symmetry_equiv_pos_site_id
 _symmetry_equiv_pos_as_xyz
  1  'x, y, z'
loop_
 _atom_site_type_symbol
 _atom_site_label
 _atom_site_symmetry_multiplicity
 _atom_site_fract_x
 _atom_site_fract_y
 _atom_site_fract_z
 _atom_site_occupancy
  Mo  Mo0  1  0.16805600  7.59231000  3.80048000  1
  Mo  Mo1  1  2.10160000  2.28637000  0.24902200  1
  Mo  Mo2  1  2.10652000  0.50387300  2.03208000  1
  Mo  Mo3  1  0.16744100  2.27631000  2.03115000  1
  Mo  Mo4  1  4.06650000  7.59482000  3.79501000  1
  Mo  Mo5  1  5.99857000  2.28150000  0.24385000  1
  Mo  Mo6  1  5.99407000  0.50965600  2.02876000  1
  Mo  Mo7  1  4.05071000  2.26845000  2.01926000  1
  Mo  Mo8  1  7.92456000  4.04482000  0.26037200  1
  Mo  Mo9  1  2.09448000  5.82709000  0.24661900  1
  Mo  Mo10  1  2.10120000  4.05560000  2.02380000  1
  Mo  Mo11  1  0.16406900  5.81536000  2.03163000  1
  Mo  Mo12  1  4.05425000  4.04285000  0.25462000  1
  Mo  Mo13  1  5.99469000  5.82460000  3.79185000  1
  Mo  Mo14  1  5.99404000  4.05823000  2.02074000  1
  Mo  Mo15  1  4.04773000  5.81817000  2.02208000  1
