# generated using pymatgen
data_Mo
_symmetry_space_group_name_H-M   'P 1'
_cell_length_a   8.18636132
_cell_length_b   6.96889240
_cell_length_c   3.48462892
_cell_angle_alpha   90.00000000
_cell_angle_beta   90.00000000
_cell_angle_gamma   90.00000000
_symmetry_Int_Tables_number   1
_chemical_formula_structural   Mo
_chemical_formula_sum   Mo16
_cell_volume   198.79763066
_cell_formula_units_Z   16
loop_
 _symmetry_equiv_pos_site_id
 _symmetry_equiv_pos_as_xyz
  1  'x, y, z'
loop_
 _atom_site_type_symbol
 _atom_site_label
 _atom_site_symmetry_multiplicity
 _atom_site_fract_x
 _atom_site_fract_y
 _atom_site_fract_z
 _atom_site_occupancy
  Mo  Mo0  1  -0.04356840  7.54274000  3.77529000  1
  Mo  Mo1  1  2.00871000  2.30878000  0.28263200  1
  Mo  Mo2  1  2.01151000  0.55488200  2.03813000  1
  Mo  Mo3  1  -0.04204520  2.32106000  2.02242000  1
  Mo  Mo4  1  4.04741000  7.53701000  3.77009000  1
  Mo  Mo5  1  6.09493000  2.29960000  0.27220400  1
  Mo  Mo6  1  6.10993000  0.56506500  2.03554000  1
  Mo  Mo7  1  4.04773000  2.30911000  2.00400000  1
  Mo  Mo8  1  8.14122000  4.05408000  0.28733300  1
  Mo  Mo9  1  2.00056000  5.79023000  0.28798800  1
  Mo  Mo10  1  2.00145000  4.04061000  2.01871000  1
  Mo  Mo11  1  -0.04916300  5.78893000  2.02864000  1
  Mo  Mo12  1  4.05139000  4.06046000  0.28234000  1
  Mo  Mo13  1  6.10011000  5.78807000  3.77023000  1
  Mo  Mo14  1  6.08837000  4.04273000  2.01753000  1
  Mo  Mo15  1  4.04511000  5.79663000  2.02228000  1
