# generated using pymatgen
data_Mo
_symmetry_space_group_name_H-M   'P 1'
_cell_length_a   8.48039465
_cell_length_b   6.89562535
_cell_length_c   3.43394876
_cell_angle_alpha   90.00000000
_cell_angle_beta   90.00000000
_cell_angle_gamma   90.00000000
_symmetry_Int_Tables_number   1
_chemical_formula_structural   Mo
_chemical_formula_sum   Mo16
_cell_volume   200.80916527
_cell_formula_units_Z   16
loop_
 _symmetry_equiv_pos_site_id
 _symmetry_equiv_pos_as_xyz
  1  'x, y, z'
loop_
 _atom_site_type_symbol
 _atom_site_label
 _atom_site_symmetry_multiplicity
 _atom_site_fract_x
 _atom_site_fract_y
 _atom_site_fract_z
 _atom_site_occupancy
  Mo  Mo0  1  1.92883000  2.33195000  0.31885800  1
  Mo  Mo1  1  1.93379000  0.60727900  2.01064000  1
  Mo  Mo2  1  -0.18623500  2.32035000  2.03199000  1
  Mo  Mo3  1  4.05600000  7.49318000  3.73499000  1
  Mo  Mo4  1  4.05808000  2.32871000  2.03975000  1
  Mo  Mo5  1  -0.18928300  4.04279000  3.74127000  1
  Mo  Mo6  1  1.92961000  5.78300000  0.31237900  1
  Mo  Mo7  1  1.91591000  4.05082000  2.01391000  1
  Mo  Mo8  1  -0.18980000  5.77512000  2.03013000  1
  Mo  Mo9  1  4.04726000  4.04240000  0.31691100  1
  Mo  Mo10  1  4.04924000  5.76530000  2.02674000  1
  Mo  Mo11  1  8.29384000  7.48844000  3.72557000  1
  Mo  Mo12  1  6.17433000  2.32827000  0.32255400  1
  Mo  Mo13  1  6.17317000  0.60869600  2.01494000  1
  Mo  Mo14  1  6.16543000  5.77419000  0.30857900  1
  Mo  Mo15  1  6.15943000  4.05951000  2.01684000  1
