# generated using pymatgen
data_Mo
_symmetry_space_group_name_H-M   'P 1'
_cell_length_a   7.66816293
_cell_length_b   7.13002253
_cell_length_c   3.56597972
_cell_angle_alpha   90.00000000
_cell_angle_beta   90.00000000
_cell_angle_gamma   90.00000000
_symmetry_Int_Tables_number   1
_chemical_formula_structural   Mo
_chemical_formula_sum   Mo16
_cell_volume   194.96699708
_cell_formula_units_Z   16
loop_
 _symmetry_equiv_pos_site_id
 _symmetry_equiv_pos_as_xyz
  1  'x, y, z'
loop_
 _atom_site_type_symbol
 _atom_site_label
 _atom_site_symmetry_multiplicity
 _atom_site_fract_x
 _atom_site_fract_y
 _atom_site_fract_z
 _atom_site_occupancy
  Mo  Mo0  1  0.22296600  7.60401000  3.81792000  1
  Mo  Mo1  1  2.12823000  2.27120000  0.23756600  1
  Mo  Mo2  1  2.14781000  0.49396800  2.02553000  1
  Mo  Mo3  1  0.21568400  2.25678000  2.01973000  1
  Mo  Mo4  1  4.05236000  7.60806000  3.81560000  1
  Mo  Mo5  1  5.96653000  2.27389000  0.23808800  1
  Mo  Mo6  1  5.98269000  0.49148400  2.02569000  1
  Mo  Mo7  1  4.06077000  2.27159000  2.02044000  1
  Mo  Mo8  1  7.88663000  4.04494000  0.24274600  1
  Mo  Mo9  1  2.13100000  5.84429000  0.24971400  1
  Mo  Mo10  1  2.12326000  4.05092000  2.01754000  1
  Mo  Mo11  1  0.20952800  5.83287000  2.03414000  1
  Mo  Mo12  1  4.03940000  4.04109000  0.24031500  1
  Mo  Mo13  1  5.95129000  5.83800000  3.80874000  1
  Mo  Mo14  1  5.96482000  4.05922000  2.01661000  1
  Mo  Mo15  1  4.04886000  5.81770000  2.02364000  1
