# generated using pymatgen
data_Mo
_symmetry_space_group_name_H-M   'P 1'
_cell_length_a   8.01459899
_cell_length_b   7.01980269
_cell_length_c   3.51071215
_cell_angle_alpha   90.00000000
_cell_angle_beta   90.00000000
_cell_angle_gamma   90.00000000
_symmetry_Int_Tables_number   1
_chemical_formula_structural   Mo
_chemical_formula_sum   Mo16
_cell_volume   197.51583742
_cell_formula_units_Z   16
loop_
 _symmetry_equiv_pos_site_id
 _symmetry_equiv_pos_as_xyz
  1  'x, y, z'
loop_
 _atom_site_type_symbol
 _atom_site_label
 _atom_site_symmetry_multiplicity
 _atom_site_fract_x
 _atom_site_fract_y
 _atom_site_fract_z
 _atom_site_occupancy
  Mo  Mo0  1  0.03579350  7.55540000  3.77434000  1
  Mo  Mo1  1  2.04460000  2.29657000  0.26844500  1
  Mo  Mo2  1  2.05199000  0.53421100  2.02835000  1
  Mo  Mo3  1  0.04120180  2.29585000  2.01413000  1
  Mo  Mo4  1  4.05544000  7.56767000  3.78539000  1
  Mo  Mo5  1  6.06495000  2.29365000  0.27314000  1
  Mo  Mo6  1  6.05151000  0.53833500  2.03387000  1
  Mo  Mo7  1  4.05442000  2.29815000  2.02267000  1
  Mo  Mo8  1  8.05721000  4.05565000  0.26928300  1
  Mo  Mo9  1  2.04618000  5.81056000  0.27287400  1
  Mo  Mo10  1  2.02517000  4.04314000  2.01761000  1
  Mo  Mo11  1  0.04104340  5.80670000  2.02344000  1
  Mo  Mo12  1  4.05643000  4.04848000  0.28040400  1
  Mo  Mo13  1  6.06167000  5.80063000  3.78116000  1
  Mo  Mo14  1  6.05190000  4.05143000  2.02255000  1
  Mo  Mo15  1  4.04590000  5.80358000  2.02164000  1
