# generated using pymatgen
data_Mo
_symmetry_space_group_name_H-M   'P 1'
_cell_length_a   8.19363862
_cell_length_b   6.96743053
_cell_length_c   3.48317027
_cell_angle_alpha   90.00000000
_cell_angle_beta   90.00000000
_cell_angle_gamma   90.00000000
_symmetry_Int_Tables_number   1
_chemical_formula_structural   Mo
_chemical_formula_sum   Mo16
_cell_volume   198.84934169
_cell_formula_units_Z   16
loop_
 _symmetry_equiv_pos_site_id
 _symmetry_equiv_pos_as_xyz
  1  'x, y, z'
loop_
 _atom_site_type_symbol
 _atom_site_label
 _atom_site_symmetry_multiplicity
 _atom_site_fract_x
 _atom_site_fract_y
 _atom_site_fract_z
 _atom_site_occupancy
  Mo  Mo0  1  -0.03235890  7.53868000  3.77504000  1
  Mo  Mo1  1  2.00036000  2.30137000  0.27815300  1
  Mo  Mo2  1  2.00860000  0.56314400  2.03383000  1
  Mo  Mo3  1  -0.04784560  2.30946000  2.01736000  1
  Mo  Mo4  1  4.06239000  7.53718000  3.76703000  1
  Mo  Mo5  1  6.09729000  2.30734000  0.27912800  1
  Mo  Mo6  1  6.11224000  0.55955400  2.03093000  1
  Mo  Mo7  1  4.06393000  2.30661000  2.01848000  1
  Mo  Mo8  1  8.13698000  4.05384000  0.29170000  1
  Mo  Mo9  1  1.98539000  5.78993000  0.27996800  1
  Mo  Mo10  1  1.98989000  4.04836000  2.03492000  1
  Mo  Mo11  1  -0.05505890  5.79433000  2.01993000  1
  Mo  Mo12  1  4.03656000  4.05173000  0.28404200  1
  Mo  Mo13  1  6.09041000  5.79426000  3.75962000  1
  Mo  Mo14  1  6.10370000  4.04415000  2.03164000  1
  Mo  Mo15  1  4.05389000  5.80007000  2.01505000  1
