# generated using pymatgen
data_Mo
_symmetry_space_group_name_H-M   'P 1'
_cell_length_a   8.55754162
_cell_length_b   6.84968776
_cell_length_c   3.43541741
_cell_angle_alpha   90.00000000
_cell_angle_beta   90.00000000
_cell_angle_gamma   90.00000000
_symmetry_Int_Tables_number   1
_chemical_formula_structural   Mo
_chemical_formula_sum   Mo16
_cell_volume   201.37210386
_cell_formula_units_Z   16
loop_
 _symmetry_equiv_pos_site_id
 _symmetry_equiv_pos_as_xyz
  1  'x, y, z'
loop_
 _atom_site_type_symbol
 _atom_site_label
 _atom_site_symmetry_multiplicity
 _atom_site_fract_x
 _atom_site_fract_y
 _atom_site_fract_z
 _atom_site_occupancy
  Mo  Mo0  1  1.90847000  2.33647000  0.29645600  1
  Mo  Mo1  1  1.92075000  0.62400900  2.02930000  1
  Mo  Mo2  1  -0.23053400  2.33937000  2.00550000  1
  Mo  Mo3  1  4.05354000  7.48173000  3.76051000  1
  Mo  Mo4  1  4.04918000  2.34452000  2.02122000  1
  Mo  Mo5  1  -0.23183800  4.05729000  3.74134000  1
  Mo  Mo6  1  1.91437000  5.75976000  0.30581400  1
  Mo  Mo7  1  1.90562000  4.04520000  2.03369000  1
  Mo  Mo8  1  -0.22952900  5.76284000  2.01399000  1
  Mo  Mo9  1  4.04654000  4.05127000  0.31256100  1
  Mo  Mo10  1  4.04383000  5.75869000  2.01808000  1
  Mo  Mo11  1  8.32549000  7.47440000  3.75365000  1
  Mo  Mo12  1  6.19408000  2.34177000  0.30377900  1
  Mo  Mo13  1  6.19081000  0.61866900  2.03014000  1
  Mo  Mo14  1  6.18895000  5.76094000  0.30572200  1
  Mo  Mo15  1  6.19273000  4.04308000  2.03282000  1
