# generated using pymatgen
data_Mo
_symmetry_space_group_name_H-M   'P 1'
_cell_length_a   8.31299964
_cell_length_b   6.93102014
_cell_length_c   3.46544242
_cell_angle_alpha   90.00000000
_cell_angle_beta   90.00000000
_cell_angle_gamma   90.00000000
_symmetry_Int_Tables_number   1
_chemical_formula_structural   Mo
_chemical_formula_sum   Mo16
_cell_volume   199.67036408
_cell_formula_units_Z   16
loop_
 _symmetry_equiv_pos_site_id
 _symmetry_equiv_pos_as_xyz
  1  'x, y, z'
loop_
 _atom_site_type_symbol
 _atom_site_label
 _atom_site_symmetry_multiplicity
 _atom_site_fract_x
 _atom_site_fract_y
 _atom_site_fract_z
 _atom_site_occupancy
  Mo  Mo0  1  1.96621000  2.32443000  0.28310400  1
  Mo  Mo1  1  1.96787000  0.58656500  2.02992000  1
  Mo  Mo2  1  -0.10850700  2.30784000  2.02430000  1
  Mo  Mo3  1  4.04870000  7.51658000  3.77069000  1
  Mo  Mo4  1  4.04741000  2.32073000  2.01810000  1
  Mo  Mo5  1  -0.10726300  4.04694000  3.74939000  1
  Mo  Mo6  1  1.97945000  5.78561000  0.28952000  1
  Mo  Mo7  1  1.96735000  4.05062000  2.02280000  1
  Mo  Mo8  1  -0.10558300  5.78451000  2.02700000  1
  Mo  Mo9  1  4.05776000  4.04538000  0.29138400  1
  Mo  Mo10  1  4.04754000  5.77059000  2.03322000  1
  Mo  Mo11  1  8.19210000  7.51069000  3.76344000  1
  Mo  Mo12  1  6.14188000  2.32250000  0.27835900  1
  Mo  Mo13  1  6.12689000  0.58860900  2.03286000  1
  Mo  Mo14  1  6.13718000  5.77702000  0.29314900  1
  Mo  Mo15  1  6.12802000  4.06137000  2.02735000  1
