# generated using pymatgen
data_Mo
_symmetry_space_group_name_H-M   'P 1'
_cell_length_a   8.09029051
_cell_length_b   6.99756557
_cell_length_c   3.49910998
_cell_angle_alpha   90.00000000
_cell_angle_beta   90.00000000
_cell_angle_gamma   90.00000000
_symmetry_Int_Tables_number   1
_chemical_formula_structural   Mo
_chemical_formula_sum   Mo16
_cell_volume   198.09279807
_cell_formula_units_Z   16
loop_
 _symmetry_equiv_pos_site_id
 _symmetry_equiv_pos_as_xyz
  1  'x, y, z'
loop_
 _atom_site_type_symbol
 _atom_site_label
 _atom_site_symmetry_multiplicity
 _atom_site_fract_x
 _atom_site_fract_y
 _atom_site_fract_z
 _atom_site_occupancy
  Mo  Mo0  1  0.00930793  7.55048000  3.78702000  1
  Mo  Mo1  1  2.02209000  2.29220000  0.26417800  1
  Mo  Mo2  1  2.01676000  0.55227600  2.02968000  1
  Mo  Mo3  1  0.00184412  2.29112000  2.00623000  1
  Mo  Mo4  1  4.05843000  7.55437000  3.79113000  1
  Mo  Mo5  1  6.08221000  2.30264000  0.27142600  1
  Mo  Mo6  1  6.07040000  0.54124600  2.03105000  1
  Mo  Mo7  1  4.05884000  2.30802000  2.01994000  1
  Mo  Mo8  1  8.09178000  4.05689000  0.26896000  1
  Mo  Mo9  1  2.02729000  5.80040000  0.27779000  1
  Mo  Mo10  1  2.02049000  4.04520000  2.02785000  1
  Mo  Mo11  1  0.00357180  5.80925000  2.01728000  1
  Mo  Mo12  1  4.04332000  4.05256000  0.27250700  1
  Mo  Mo13  1  6.06895000  5.80196000  3.78082000  1
  Mo  Mo14  1  6.07727000  4.04418000  2.02897000  1
  Mo  Mo15  1  4.05715000  5.79721000  2.02605000  1
