# generated using pymatgen
data_Mo
_symmetry_space_group_name_H-M   'P 1'
_cell_length_a   7.42362046
_cell_length_b   7.21692502
_cell_length_c   3.61087775
_cell_angle_alpha   90.00000000
_cell_angle_beta   90.00000000
_cell_angle_gamma   90.00000000
_symmetry_Int_Tables_number   1
_chemical_formula_structural   Mo
_chemical_formula_sum   Mo16
_cell_volume   193.45534758
_cell_formula_units_Z   16
loop_
 _symmetry_equiv_pos_site_id
 _symmetry_equiv_pos_as_xyz
  1  'x, y, z'
loop_
 _atom_site_type_symbol
 _atom_site_label
 _atom_site_symmetry_multiplicity
 _atom_site_fract_x
 _atom_site_fract_y
 _atom_site_fract_z
 _atom_site_occupancy
  Mo  Mo0  1  0.34041000  7.66634000  3.83705000  1
  Mo  Mo1  1  2.19043000  2.23865000  0.20833100  1
  Mo  Mo2  1  2.20360000  0.43458100  2.03471000  1
  Mo  Mo3  1  0.33531200  2.24704000  2.01179000  1
  Mo  Mo4  1  4.04529000  7.67091000  3.83722000  1
  Mo  Mo5  1  5.89401000  2.24440000  0.21371300  1
  Mo  Mo6  1  5.90319000  0.42971600  2.03569000  1
  Mo  Mo7  1  4.05603000  2.24728000  2.02176000  1
  Mo  Mo8  1  7.77399000  4.06192000  0.22354800  1
  Mo  Mo9  1  2.19177000  5.84872000  0.21196800  1
  Mo  Mo10  1  2.19062000  4.04366000  2.03999000  1
  Mo  Mo11  1  0.33964300  5.86030000  2.01627000  1
  Mo  Mo12  1  4.04907000  4.05510000  0.22391600  1
  Mo  Mo13  1  5.89679000  5.84789000  3.81974000  1
  Mo  Mo14  1  5.91395000  4.04174000  2.03984000  1
  Mo  Mo15  1  4.05228000  5.86173000  2.01359000  1
