# generated using pymatgen
data_Mo
_symmetry_space_group_name_H-M   'P 1'
_cell_length_a   8.28243118
_cell_length_b   6.94126934
_cell_length_c   3.46959090
_cell_angle_alpha   90.00000000
_cell_angle_beta   90.00000000
_cell_angle_gamma   90.00000000
_symmetry_Int_Tables_number   1
_chemical_formula_structural   Mo
_chemical_formula_sum   Mo16
_cell_volume   199.46881270
_cell_formula_units_Z   16
loop_
 _symmetry_equiv_pos_site_id
 _symmetry_equiv_pos_as_xyz
  1  'x, y, z'
loop_
 _atom_site_type_symbol
 _atom_site_label
 _atom_site_symmetry_multiplicity
 _atom_site_fract_x
 _atom_site_fract_y
 _atom_site_fract_z
 _atom_site_occupancy
  Mo  Mo0  1  1.97818000  2.32188000  0.27692800  1
  Mo  Mo1  1  1.97158000  0.58488300  2.03033000  1
  Mo  Mo2  1  -0.09380250  2.30634000  2.01014000  1
  Mo  Mo3  1  4.04393000  7.51918000  3.77780000  1
  Mo  Mo4  1  4.04406000  2.30644000  2.01966000  1
  Mo  Mo5  1  -0.08586170  4.04718000  3.75993000  1
  Mo  Mo6  1  1.98557000  5.79089000  0.28519000  1
  Mo  Mo7  1  1.99063000  4.05827000  2.02302000  1
  Mo  Mo8  1  -0.08141560  5.77546000  2.01693000  1
  Mo  Mo9  1  4.05287000  4.04169000  0.29601000  1
  Mo  Mo10  1  4.05363000  5.77954000  2.03117000  1
  Mo  Mo11  1  8.18639000  7.51336000  3.77248000  1
  Mo  Mo12  1  6.11574000  2.32729000  0.28137700  1
  Mo  Mo13  1  6.09923000  0.57969500  2.03203000  1
  Mo  Mo14  1  6.12321000  5.79553000  0.29278900  1
  Mo  Mo15  1  6.13364000  4.05236000  2.02463000  1
