# generated using pymatgen
data_Mo
_symmetry_space_group_name_H-M   'P 1'
_cell_length_a   8.63760048
_cell_length_b   6.83641648
_cell_length_c   3.42111850
_cell_angle_alpha   90.00000000
_cell_angle_beta   90.00000000
_cell_angle_gamma   90.00000000
_symmetry_Int_Tables_number   1
_chemical_formula_structural   Mo
_chemical_formula_sum   Mo16
_cell_volume   202.01784888
_cell_formula_units_Z   16
loop_
 _symmetry_equiv_pos_site_id
 _symmetry_equiv_pos_as_xyz
  1  'x, y, z'
loop_
 _atom_site_type_symbol
 _atom_site_label
 _atom_site_symmetry_multiplicity
 _atom_site_fract_x
 _atom_site_fract_y
 _atom_site_fract_z
 _atom_site_occupancy
  Mo  Mo0  1  1.88454000  2.34398000  0.31291400  1
  Mo  Mo1  1  1.89088000  0.63359800  2.02246000  1
  Mo  Mo2  1  -0.27009300  2.34354000  2.01726000  1
  Mo  Mo3  1  4.03676000  7.46821000  3.73747000  1
  Mo  Mo4  1  4.05226000  2.33846000  2.03074000  1
  Mo  Mo5  1  -0.25307000  4.04803000  3.72915000  1
  Mo  Mo6  1  1.88765000  5.75127000  0.32323600  1
  Mo  Mo7  1  1.89821000  4.05639000  2.01324000  1
  Mo  Mo8  1  -0.26719800  5.75159000  2.02970000  1
  Mo  Mo9  1  4.05593000  4.04720000  0.31060600  1
  Mo  Mo10  1  4.05861000  5.76302000  2.03511000  1
  Mo  Mo11  1  8.36830000  7.46708000  3.73574000  1
  Mo  Mo12  1  6.19137000  2.34780000  0.31941900  1
  Mo  Mo13  1  6.21127000  0.63107400  2.02407000  1
  Mo  Mo14  1  6.20095000  5.76082000  0.32436900  1
  Mo  Mo15  1  6.21603000  4.04794000  2.01339000  1
