# generated using pymatgen
data_Mo
_symmetry_space_group_name_H-M   'P 1'
_cell_length_a   7.91416179
_cell_length_b   7.05118036
_cell_length_c   3.52585268
_cell_angle_alpha   90.00000000
_cell_angle_beta   90.00000000
_cell_angle_gamma   90.00000000
_symmetry_Int_Tables_number   1
_chemical_formula_structural   Mo
_chemical_formula_sum   Mo16
_cell_volume   196.75732548
_cell_formula_units_Z   16
loop_
 _symmetry_equiv_pos_site_id
 _symmetry_equiv_pos_as_xyz
  1  'x, y, z'
loop_
 _atom_site_type_symbol
 _atom_site_label
 _atom_site_symmetry_multiplicity
 _atom_site_fract_x
 _atom_site_fract_y
 _atom_site_fract_z
 _atom_site_occupancy
  Mo  Mo0  1  0.08513290  7.58100000  3.79624000  1
  Mo  Mo1  1  2.05932000  2.28858000  0.25503200  1
  Mo  Mo2  1  2.05886000  0.52627200  2.02573000  1
  Mo  Mo3  1  0.09411170  2.29032000  2.01580000  1
  Mo  Mo4  1  4.04554000  7.57005000  3.79499000  1
  Mo  Mo5  1  6.01778000  2.28913000  0.26024900  1
  Mo  Mo6  1  6.02712000  0.52341600  2.02642000  1
  Mo  Mo7  1  4.04225000  2.29011000  2.02575000  1
  Mo  Mo8  1  8.01255000  4.04903000  0.25652900  1
  Mo  Mo9  1  2.06649000  5.80930000  0.26595900  1
  Mo  Mo10  1  2.09261000  4.05080000  2.02924000  1
  Mo  Mo11  1  0.10020300  5.80598000  2.02564000  1
  Mo  Mo12  1  4.06404000  4.05674000  0.25504400  1
  Mo  Mo13  1  6.02889000  5.81606000  3.78928000  1
  Mo  Mo14  1  6.03471000  4.04449000  2.02855000  1
  Mo  Mo15  1  4.05622000  5.80871000  2.02370000  1
