# generated using pymatgen
data_Mo
_symmetry_space_group_name_H-M   'P 1'
_cell_length_a   7.31590503
_cell_length_b   7.26267368
_cell_length_c   3.63126016
_cell_angle_alpha   90.00000000
_cell_angle_beta   90.00000000
_cell_angle_gamma   90.00000000
_symmetry_Int_Tables_number   1
_chemical_formula_structural   Mo
_chemical_formula_sum   Mo16
_cell_volume   192.93985815
_cell_formula_units_Z   16
loop_
 _symmetry_equiv_pos_site_id
 _symmetry_equiv_pos_as_xyz
  1  'x, y, z'
loop_
 _atom_site_type_symbol
 _atom_site_label
 _atom_site_symmetry_multiplicity
 _atom_site_fract_x
 _atom_site_fract_y
 _atom_site_fract_z
 _atom_site_occupancy
  Mo  Mo0  1  0.39463700  7.69553000  3.85268000  1
  Mo  Mo1  1  2.21885000  2.23220000  0.20796600  1
  Mo  Mo2  1  2.22768000  0.41183400  2.02568000  1
  Mo  Mo3  1  0.39287300  2.23977000  2.02175000  1
  Mo  Mo4  1  4.05378000  7.68475000  3.84228000  1
  Mo  Mo5  1  5.88142000  2.23704000  0.20820500  1
  Mo  Mo6  1  5.90768000  0.40587400  2.02060000  1
  Mo  Mo7  1  4.05643000  2.24148000  2.02019000  1
  Mo  Mo8  1  7.70150000  4.05384000  0.22326300  1
  Mo  Mo9  1  2.21025000  5.85389000  0.20014900  1
  Mo  Mo10  1  2.21460000  4.04622000  2.04534000  1
  Mo  Mo11  1  0.37911600  5.86875000  2.01076000  1
  Mo  Mo12  1  4.04795000  4.05963000  0.21305300  1
  Mo  Mo13  1  5.87642000  5.86214000  3.83001000  1
  Mo  Mo14  1  5.87168000  4.03934000  2.04012000  1
  Mo  Mo15  1  4.04924000  5.86770000  2.00670000  1
