# generated using pymatgen
data_Mo
_symmetry_space_group_name_H-M   'P 1'
_cell_length_a   7.65797377
_cell_length_b   7.13570079
_cell_length_c   3.56679893
_cell_angle_alpha   90.00000000
_cell_angle_beta   90.00000000
_cell_angle_gamma   90.00000000
_symmetry_Int_Tables_number   1
_chemical_formula_structural   Mo
_chemical_formula_sum   Mo16
_cell_volume   194.90776106
_cell_formula_units_Z   16
loop_
 _symmetry_equiv_pos_site_id
 _symmetry_equiv_pos_as_xyz
  1  'x, y, z'
loop_
 _atom_site_type_symbol
 _atom_site_label
 _atom_site_symmetry_multiplicity
 _atom_site_fract_x
 _atom_site_fract_y
 _atom_site_fract_z
 _atom_site_occupancy
  Mo  Mo0  1  0.22507600  7.62465000  3.80762000  1
  Mo  Mo1  1  2.14167000  2.26404000  0.24439600  1
  Mo  Mo2  1  2.13490000  0.47678500  2.03296000  1
  Mo  Mo3  1  0.22050000  2.27258000  2.03170000  1
  Mo  Mo4  1  4.06473000  7.62419000  3.79967000  1
  Mo  Mo5  1  5.97634000  2.26555000  0.23734800  1
  Mo  Mo6  1  5.96355000  0.47662000  2.02805000  1
  Mo  Mo7  1  4.04981000  2.26773000  2.01747000  1
  Mo  Mo8  1  7.86480000  4.05841000  0.25381500  1
  Mo  Mo9  1  2.13029000  5.82779000  0.22975100  1
  Mo  Mo10  1  2.12646000  4.04426000  2.04013000  1
  Mo  Mo11  1  0.21732300  5.83316000  2.01539000  1
  Mo  Mo12  1  4.04568000  4.05728000  0.24565200  1
  Mo  Mo13  1  5.97229000  5.82797000  3.79835000  1
  Mo  Mo14  1  5.96428000  4.04379000  2.03640000  1
  Mo  Mo15  1  4.04433000  5.83520000  2.01450000  1
