# generated using pymatgen
data_Mo
_symmetry_space_group_name_H-M   'P 1'
_cell_length_a   8.06263392
_cell_length_b   7.00551665
_cell_length_c   3.50326562
_cell_angle_alpha   90.00000000
_cell_angle_beta   90.00000000
_cell_angle_gamma   90.00000000
_symmetry_Int_Tables_number   1
_chemical_formula_structural   Mo
_chemical_formula_sum   Mo16
_cell_volume   197.87465816
_cell_formula_units_Z   16
loop_
 _symmetry_equiv_pos_site_id
 _symmetry_equiv_pos_as_xyz
  1  'x, y, z'
loop_
 _atom_site_type_symbol
 _atom_site_label
 _atom_site_symmetry_multiplicity
 _atom_site_fract_x
 _atom_site_fract_y
 _atom_site_fract_z
 _atom_site_occupancy
  Mo  Mo0  1  0.00785224  7.55826000  3.77040000  1
  Mo  Mo1  1  2.03231000  2.29103000  0.27376000  1
  Mo  Mo2  1  2.01982000  0.54231500  2.02634000  1
  Mo  Mo3  1  0.00843715  2.30272000  2.02430000  1
  Mo  Mo4  1  4.03526000  7.55824000  3.77430000  1
  Mo  Mo5  1  6.06561000  2.28809000  0.27458400  1
  Mo  Mo6  1  6.06018000  0.54393500  2.02906000  1
  Mo  Mo7  1  4.04838000  2.29909000  2.02790000  1
  Mo  Mo8  1  8.08814000  4.05782000  0.26464400  1
  Mo  Mo9  1  2.04138000  5.79904000  0.27533300  1
  Mo  Mo10  1  2.03990000  4.04481000  2.02481000  1
  Mo  Mo11  1  0.01716380  5.80510000  2.02559000  1
  Mo  Mo12  1  4.05632000  4.05660000  0.26854900  1
  Mo  Mo13  1  6.07700000  5.79996000  3.77921000  1
  Mo  Mo14  1  6.07967000  4.04288000  2.02808000  1
  Mo  Mo15  1  4.05994000  5.81010000  2.02988000  1
