# generated using pymatgen
data_Mo
_symmetry_space_group_name_H-M   'P 1'
_cell_length_a   8.27224201
_cell_length_b   6.94378221
_cell_length_c   3.47140741
_cell_angle_alpha   90.00000000
_cell_angle_beta   90.00000000
_cell_angle_gamma   90.00000000
_symmetry_Int_Tables_number   1
_chemical_formula_structural   Mo
_chemical_formula_sum   Mo16
_cell_volume   199.39988751
_cell_formula_units_Z   16
loop_
 _symmetry_equiv_pos_site_id
 _symmetry_equiv_pos_as_xyz
  1  'x, y, z'
loop_
 _atom_site_type_symbol
 _atom_site_label
 _atom_site_symmetry_multiplicity
 _atom_site_fract_x
 _atom_site_fract_y
 _atom_site_fract_z
 _atom_site_occupancy
  Mo  Mo0  1  1.97667000  2.30443000  0.29702700  1
  Mo  Mo1  1  1.99359000  0.57706300  2.02112000  1
  Mo  Mo2  1  -0.08774860  2.31395000  2.03084000  1
  Mo  Mo3  1  4.04984000  7.52535000  3.74929000  1
  Mo  Mo4  1  4.05841000  2.32494000  2.03281000  1
  Mo  Mo5  1  -0.08112460  4.05400000  3.75126000  1
  Mo  Mo6  1  1.97973000  5.78736000  0.29979500  1
  Mo  Mo7  1  1.97360000  4.04188000  2.01723000  1
  Mo  Mo8  1  -0.09180370  5.79784000  2.03677000  1
  Mo  Mo9  1  4.04584000  4.05211000  0.28250800  1
  Mo  Mo10  1  4.04940000  5.78627000  2.02830000  1
  Mo  Mo11  1  8.18880000  7.52110000  3.74672000  1
  Mo  Mo12  1  6.11654000  2.30376000  0.29833000  1
  Mo  Mo13  1  6.13228000  0.57849600  2.02381000  1
  Mo  Mo14  1  6.10730000  5.77954000  0.29398700  1
  Mo  Mo15  1  6.11645000  4.05190000  2.01879000  1
