# generated using pymatgen
data_Mo
_symmetry_space_group_name_H-M   'P 1'
_cell_length_a   7.54298055
_cell_length_b   7.17517495
_cell_length_c   3.58748436
_cell_angle_alpha   90.00000000
_cell_angle_beta   90.00000000
_cell_angle_gamma   90.00000000
_symmetry_Int_Tables_number   1
_chemical_formula_structural   Mo
_chemical_formula_sum   Mo16
_cell_volume   194.16256436
_cell_formula_units_Z   16
loop_
 _symmetry_equiv_pos_site_id
 _symmetry_equiv_pos_as_xyz
  1  'x, y, z'
loop_
 _atom_site_type_symbol
 _atom_site_label
 _atom_site_symmetry_multiplicity
 _atom_site_fract_x
 _atom_site_fract_y
 _atom_site_fract_z
 _atom_site_occupancy
  Mo  Mo0  1  0.28220500  7.63197000  3.81099000  1
  Mo  Mo1  1  2.17222000  2.25711000  0.24340000  1
  Mo  Mo2  1  2.16600000  0.47085900  2.00968000  1
  Mo  Mo3  1  0.27797300  2.25904000  2.04793000  1
  Mo  Mo4  1  4.04891000  7.63136000  3.80188000  1
  Mo  Mo5  1  5.94239000  2.26051000  0.24009400  1
  Mo  Mo6  1  5.94419000  0.46798800  2.00437000  1
  Mo  Mo7  1  4.05669000  2.25187000  2.04077000  1
  Mo  Mo8  1  7.81595000  4.04593000  0.22976400  1
  Mo  Mo9  1  2.16477000  5.84053000  0.23010700  1
  Mo  Mo10  1  2.15035000  4.06147000  2.02777000  1
  Mo  Mo11  1  0.27018200  5.83492000  2.03060000  1
  Mo  Mo12  1  4.04436000  4.04259000  0.22037800  1
  Mo  Mo13  1  5.93995000  5.84823000  3.81975000  1
  Mo  Mo14  1  5.92991000  4.05366000  2.02325000  1
  Mo  Mo15  1  4.05096000  5.84197000  2.03178000  1
