# generated using pymatgen
data_Mo
_symmetry_space_group_name_H-M   'P 1'
_cell_length_a   8.39742488
_cell_length_b   6.90425432
_cell_length_c   3.45369673
_cell_angle_alpha   90.00000000
_cell_angle_beta   90.00000000
_cell_angle_gamma   90.00000000
_symmetry_Int_Tables_number   1
_chemical_formula_structural   Mo
_chemical_formula_sum   Mo16
_cell_volume   200.23828023
_cell_formula_units_Z   16
loop_
 _symmetry_equiv_pos_site_id
 _symmetry_equiv_pos_as_xyz
  1  'x, y, z'
loop_
 _atom_site_type_symbol
 _atom_site_label
 _atom_site_symmetry_multiplicity
 _atom_site_fract_x
 _atom_site_fract_y
 _atom_site_fract_z
 _atom_site_occupancy
  Mo  Mo0  1  1.95692000  2.33460000  0.28781700  1
  Mo  Mo1  1  1.93746000  0.59169900  2.02419000  1
  Mo  Mo2  1  -0.14490200  2.32835000  2.01406000  1
  Mo  Mo3  1  4.04730000  7.50267000  3.77171000  1
  Mo  Mo4  1  4.03917000  2.31619000  2.02176000  1
  Mo  Mo5  1  -0.14644900  4.04648000  3.74655000  1
  Mo  Mo6  1  1.95524000  5.77765000  0.29631700  1
  Mo  Mo7  1  1.96118000  4.04959000  2.02803000  1
  Mo  Mo8  1  -0.13824400  5.76538000  2.02015000  1
  Mo  Mo9  1  4.05754000  4.05347000  0.30472100  1
  Mo  Mo10  1  4.05196000  5.77709000  2.02217000  1
  Mo  Mo11  1  8.24662000  7.50508000  3.75974000  1
  Mo  Mo12  1  6.14522000  2.32494000  0.29079600  1
  Mo  Mo13  1  6.12922000  0.60138700  2.02983000  1
  Mo  Mo14  1  6.15845000  5.77493000  0.29546600  1
  Mo  Mo15  1  6.14588000  4.05049000  2.03301000  1
