# generated using pymatgen
data_Mo
_symmetry_space_group_name_H-M   'P 1'
_cell_length_a   8.60703295
_cell_length_b   6.85332227
_cell_length_c   3.42053866
_cell_angle_alpha   90.00000000
_cell_angle_beta   90.00000000
_cell_angle_gamma   90.00000000
_symmetry_Int_Tables_number   1
_chemical_formula_structural   Mo
_chemical_formula_sum   Mo16
_cell_volume   201.76652951
_cell_formula_units_Z   16
loop_
 _symmetry_equiv_pos_site_id
 _symmetry_equiv_pos_as_xyz
  1  'x, y, z'
loop_
 _atom_site_type_symbol
 _atom_site_label
 _atom_site_symmetry_multiplicity
 _atom_site_fract_x
 _atom_site_fract_y
 _atom_site_fract_z
 _atom_site_occupancy
  Mo  Mo0  1  1.90616000  2.34307000  0.30824900  1
  Mo  Mo1  1  1.91116000  0.61787400  2.02386000  1
  Mo  Mo2  1  -0.24407900  2.34231000  2.02130000  1
  Mo  Mo3  1  4.04957000  7.47589000  3.74468000  1
  Mo  Mo4  1  4.05308000  2.33574000  2.02841000  1
  Mo  Mo5  1  -0.25583400  4.04490000  3.72171000  1
  Mo  Mo6  1  1.89382000  5.75816000  0.32050300  1
  Mo  Mo7  1  1.89345000  4.05052000  2.02713000  1
  Mo  Mo8  1  -0.25888500  5.76250000  2.03224000  1
  Mo  Mo9  1  4.04310000  4.05322000  0.30893300  1
  Mo  Mo10  1  4.04654000  5.76731000  2.02633000  1
  Mo  Mo11  1  8.36500000  7.47994000  3.73667000  1
  Mo  Mo12  1  6.19522000  2.33367000  0.31068700  1
  Mo  Mo13  1  6.22019000  0.62654000  2.02607000  1
  Mo  Mo14  1  6.19464000  5.75592000  0.31442700  1
  Mo  Mo15  1  6.17983000  4.05245000  2.02826000  1
