# generated using pymatgen
data_Mo
_symmetry_space_group_name_H-M   'P 1'
_cell_length_a   7.48330051
_cell_length_b   7.19895235
_cell_length_c   3.59740520
_cell_angle_alpha   90.00000000
_cell_angle_beta   90.00000000
_cell_angle_gamma   90.00000000
_symmetry_Int_Tables_number   1
_chemical_formula_structural   Mo
_chemical_formula_sum   Mo16
_cell_volume   193.79913837
_cell_formula_units_Z   16
loop_
 _symmetry_equiv_pos_site_id
 _symmetry_equiv_pos_as_xyz
  1  'x, y, z'
loop_
 _atom_site_type_symbol
 _atom_site_label
 _atom_site_symmetry_multiplicity
 _atom_site_fract_x
 _atom_site_fract_y
 _atom_site_fract_z
 _atom_site_occupancy
  Mo  Mo0  1  0.31240400  7.64461000  3.81907000  1
  Mo  Mo1  1  2.17246000  2.25538000  0.21989600  1
  Mo  Mo2  1  2.17359000  0.45208800  2.03499000  1
  Mo  Mo3  1  0.30322900  2.23888000  2.02115000  1
  Mo  Mo4  1  4.04971000  7.65126000  3.82533000  1
  Mo  Mo5  1  5.91916000  2.25290000  0.22026300  1
  Mo  Mo6  1  5.91637000  0.45402800  2.03814000  1
  Mo  Mo7  1  4.05602000  2.25253000  2.02147000  1
  Mo  Mo8  1  7.79520000  4.04698000  0.22273700  1
  Mo  Mo9  1  2.18290000  5.85549000  0.22729000  1
  Mo  Mo10  1  2.18369000  4.04959000  2.01825000  1
  Mo  Mo11  1  0.31029400  5.85500000  2.03256000  1
  Mo  Mo12  1  4.04108000  4.04503000  0.22897900  1
  Mo  Mo13  1  5.91010000  5.84510000  3.82243000  1
  Mo  Mo14  1  5.93267000  4.06163000  2.02104000  1
  Mo  Mo15  1  4.05781000  5.83951000  2.02900000  1
