# generated using pymatgen
data_Mo
_symmetry_space_group_name_H-M   'P 1'
_cell_length_a   7.82391378
_cell_length_b   7.07957703
_cell_length_c   3.53996348
_cell_angle_alpha   90.00000000
_cell_angle_beta   90.00000000
_cell_angle_gamma   90.00000000
_symmetry_Int_Tables_number   1
_chemical_formula_structural   Mo
_chemical_formula_sum   Mo16
_cell_volume   196.07857840
_cell_formula_units_Z   16
loop_
 _symmetry_equiv_pos_site_id
 _symmetry_equiv_pos_as_xyz
  1  'x, y, z'
loop_
 _atom_site_type_symbol
 _atom_site_label
 _atom_site_symmetry_multiplicity
 _atom_site_fract_x
 _atom_site_fract_y
 _atom_site_fract_z
 _atom_site_occupancy
  Mo  Mo0  1  0.13746000  7.58816000  3.79915000  1
  Mo  Mo1  1  2.09155000  2.28516000  0.25490800  1
  Mo  Mo2  1  2.08856000  0.51237800  2.01929000  1
  Mo  Mo3  1  0.14418200  2.28274000  2.02358000  1
  Mo  Mo4  1  4.05642000  7.57881000  3.80335000  1
  Mo  Mo5  1  6.01121000  2.27999000  0.25366400  1
  Mo  Mo6  1  6.01875000  0.51592200  2.02182000  1
  Mo  Mo7  1  4.04944000  2.28038000  2.02432000  1
  Mo  Mo8  1  7.95804000  4.04203000  0.25388500  1
  Mo  Mo9  1  2.08697000  5.82209000  0.25481400  1
  Mo  Mo10  1  2.08878000  4.05267000  2.02157000  1
  Mo  Mo11  1  0.13376700  5.81304000  2.02118000  1
  Mo  Mo12  1  4.06091000  4.05219000  0.25817900  1
  Mo  Mo13  1  6.01193000  5.82588000  3.79751000  1
  Mo  Mo14  1  5.98885000  4.05063000  2.02479000  1
  Mo  Mo15  1  4.04926000  5.81793000  2.02803000  1
