# generated using pymatgen
data_Mo
_symmetry_space_group_name_H-M   'P 1'
_cell_length_a   8.72493756
_cell_length_b   6.82524824
_cell_length_c   3.40543771
_cell_angle_alpha   90.00000000
_cell_angle_beta   90.00000000
_cell_angle_gamma   90.00000000
_symmetry_Int_Tables_number   1
_chemical_formula_structural   Mo
_chemical_formula_sum   Mo16
_cell_volume   202.79335484
_cell_formula_units_Z   16
loop_
 _symmetry_equiv_pos_site_id
 _symmetry_equiv_pos_as_xyz
  1  'x, y, z'
loop_
 _atom_site_type_symbol
 _atom_site_label
 _atom_site_symmetry_multiplicity
 _atom_site_fract_x
 _atom_site_fract_y
 _atom_site_fract_z
 _atom_site_occupancy
  Mo  Mo0  1  1.86745000  2.34961000  0.32347400  1
  Mo  Mo1  1  1.87666000  0.63917900  2.02029000  1
  Mo  Mo2  1  -0.30839700  2.34821000  2.02798000  1
  Mo  Mo3  1  4.02938000  7.45958000  3.72924000  1
  Mo  Mo4  1  4.03727000  2.33669000  2.02481000  1
  Mo  Mo5  1  -0.30371700  4.04398000  3.72108000  1
  Mo  Mo6  1  1.86774000  5.75487000  0.32691600  1
  Mo  Mo7  1  1.89063000  4.05615000  2.01698000  1
  Mo  Mo8  1  -0.30495200  5.74941000  2.02766000  1
  Mo  Mo9  1  4.06393000  4.04229000  0.31281700  1
  Mo  Mo10  1  4.04585000  5.76161000  2.03689000  1
  Mo  Mo11  1  8.39320000  7.45922000  3.73187000  1
  Mo  Mo12  1  6.21542000  2.35270000  0.32279200  1
  Mo  Mo13  1  6.23341000  0.63693900  2.01979000  1
  Mo  Mo14  1  6.23455000  5.76081000  0.33470700  1
  Mo  Mo15  1  6.23663000  4.04874000  2.01727000  1
