# generated using pymatgen
data_Mo
_symmetry_space_group_name_H-M   'P 1'
_cell_length_a   8.12522535
_cell_length_b   6.98646700
_cell_length_c   3.49405169
_cell_angle_alpha   90.00000000
_cell_angle_beta   90.00000000
_cell_angle_gamma   90.00000000
_symmetry_Int_Tables_number   1
_chemical_formula_structural   Mo
_chemical_formula_sum   Mo16
_cell_volume   198.34550059
_cell_formula_units_Z   16
loop_
 _symmetry_equiv_pos_site_id
 _symmetry_equiv_pos_as_xyz
  1  'x, y, z'
loop_
 _atom_site_type_symbol
 _atom_site_label
 _atom_site_symmetry_multiplicity
 _atom_site_fract_x
 _atom_site_fract_y
 _atom_site_fract_z
 _atom_site_occupancy
  Mo  Mo0  1  -0.01112520  7.53043000  3.76963000  1
  Mo  Mo1  1  2.02341000  2.30793000  0.27270500  1
  Mo  Mo2  1  2.02931000  0.56523600  2.02697000  1
  Mo  Mo3  1  -0.00548022  2.29925000  2.02115000  1
  Mo  Mo4  1  4.06063000  7.53916000  3.77602000  1
  Mo  Mo5  1  6.08724000  2.30914000  0.27532800  1
  Mo  Mo6  1  6.07127000  0.56626600  2.03118000  1
  Mo  Mo7  1  4.05190000  2.30250000  2.02744000  1
  Mo  Mo8  1  8.11100000  4.04801000  0.27382800  1
  Mo  Mo9  1  2.01918000  5.80437000  0.28106800  1
  Mo  Mo10  1  2.00173000  4.05439000  2.01364000  1
  Mo  Mo11  1  -0.00765456  5.78837000  2.03288000  1
  Mo  Mo12  1  4.05042000  4.04116000  0.28060800  1
  Mo  Mo13  1  6.08171000  5.79728000  3.77320000  1
  Mo  Mo14  1  6.07062000  4.06000000  2.01729000  1
  Mo  Mo15  1  4.04062000  5.78652000  2.03301000  1
