# generated using pymatgen
data_Mo
_symmetry_space_group_name_H-M   'P 1'
_cell_length_a   8.04080012
_cell_length_b   7.01272047
_cell_length_c   3.50634074
_cell_angle_alpha   90.00000000
_cell_angle_beta   90.00000000
_cell_angle_gamma   90.00000000
_symmetry_Int_Tables_number   1
_chemical_formula_structural   Mo
_chemical_formula_sum   Mo16
_cell_volume   197.71513347
_cell_formula_units_Z   16
loop_
 _symmetry_equiv_pos_site_id
 _symmetry_equiv_pos_as_xyz
  1  'x, y, z'
loop_
 _atom_site_type_symbol
 _atom_site_label
 _atom_site_symmetry_multiplicity
 _atom_site_fract_x
 _atom_site_fract_y
 _atom_site_fract_z
 _atom_site_occupancy
  Mo  Mo0  1  0.03344600  7.55849000  3.77885000  1
  Mo  Mo1  1  2.04520000  2.29616000  0.27332000  1
  Mo  Mo2  1  2.04060000  0.54151800  2.02615000  1
  Mo  Mo3  1  0.03168520  2.29766000  2.02720000  1
  Mo  Mo4  1  4.06211000  7.55613000  3.77234000  1
  Mo  Mo5  1  6.07336000  2.29613000  0.27199000  1
  Mo  Mo6  1  6.06674000  0.54300900  2.02470000  1
  Mo  Mo7  1  4.05518000  2.29566000  2.02477000  1
  Mo  Mo8  1  8.05932000  4.05285000  0.28299400  1
  Mo  Mo9  1  2.03520000  5.80708000  0.26640900  1
  Mo  Mo10  1  2.02230000  4.04659000  2.03776000  1
  Mo  Mo11  1  0.02319660  5.79952000  2.02234000  1
  Mo  Mo12  1  4.04667000  4.05328000  0.27604800  1
  Mo  Mo13  1  6.06775000  5.80601000  3.76457000  1
  Mo  Mo14  1  6.04989000  4.04865000  2.03507000  1
  Mo  Mo15  1  4.04653000  5.80127000  2.00915000  1
