# generated using pymatgen
data_Mo
_symmetry_space_group_name_H-M   'P 1'
_cell_length_a   7.95783035
_cell_length_b   7.03861278
_cell_length_c   3.51875639
_cell_angle_alpha   90.00000000
_cell_angle_beta   90.00000000
_cell_angle_gamma   90.00000000
_symmetry_Int_Tables_number   1
_chemical_formula_structural   Mo
_chemical_formula_sum   Mo16
_cell_volume   197.09288694
_cell_formula_units_Z   16
loop_
 _symmetry_equiv_pos_site_id
 _symmetry_equiv_pos_as_xyz
  1  'x, y, z'
loop_
 _atom_site_type_symbol
 _atom_site_label
 _atom_site_symmetry_multiplicity
 _atom_site_fract_x
 _atom_site_fract_y
 _atom_site_fract_z
 _atom_site_occupancy
  Mo  Mo0  1  0.06904160  7.57913000  3.79015000  1
  Mo  Mo1  1  2.06417000  2.28091000  0.27385300  1
  Mo  Mo2  1  2.04429000  0.52611600  2.01849000  1
  Mo  Mo3  1  0.06575670  2.29645000  2.02857000  1
  Mo  Mo4  1  4.04982000  7.56889000  3.78039000  1
  Mo  Mo5  1  6.04832000  2.28394000  0.27111700  1
  Mo  Mo6  1  6.03968000  0.52205100  2.01425000  1
  Mo  Mo7  1  4.04684000  2.29820000  2.02386000  1
  Mo  Mo8  1  8.02565000  4.05023000  0.25349800  1
  Mo  Mo9  1  2.06494000  5.79932000  0.28399300  1
  Mo  Mo10  1  2.06409000  4.04812000  2.01725000  1
  Mo  Mo11  1  0.06643280  5.82150000  2.03539000  1
  Mo  Mo12  1  4.05098000  4.05540000  0.24366900  1
  Mo  Mo13  1  6.05043000  5.80541000  3.80108000  1
  Mo  Mo14  1  6.03861000  4.04352000  2.01342000  1
  Mo  Mo15  1  4.05313000  5.82080000  2.03225000  1
