# generated using pymatgen
data_Mo
_symmetry_space_group_name_H-M   'P 1'
_cell_length_a   7.75550003
_cell_length_b   7.10191292
_cell_length_c   3.55099893
_cell_angle_alpha   90.00000000
_cell_angle_beta   90.00000000
_cell_angle_gamma   90.00000000
_symmetry_Int_Tables_number   1
_chemical_formula_structural   Mo
_chemical_formula_sum   Mo16
_cell_volume   195.58506453
_cell_formula_units_Z   16
loop_
 _symmetry_equiv_pos_site_id
 _symmetry_equiv_pos_as_xyz
  1  'x, y, z'
loop_
 _atom_site_type_symbol
 _atom_site_label
 _atom_site_symmetry_multiplicity
 _atom_site_fract_x
 _atom_site_fract_y
 _atom_site_fract_z
 _atom_site_occupancy
  Mo  Mo0  1  0.16559900  7.60455000  3.78082000  1
  Mo  Mo1  1  2.10450000  2.26419000  0.25574000  1
  Mo  Mo2  1  2.10904000  0.49617300  2.01719000  1
  Mo  Mo3  1  0.16940900  2.27327000  2.02885000  1
  Mo  Mo4  1  4.03396000  7.60824000  3.79250000  1
  Mo  Mo5  1  5.97832000  2.26317000  0.26108700  1
  Mo  Mo6  1  5.98275000  0.49523200  2.02389000  1
  Mo  Mo7  1  4.05269000  2.28758000  2.04000000  1
  Mo  Mo8  1  7.94776000  4.05674000  0.23577300  1
  Mo  Mo9  1  2.12191000  5.82378000  0.25451700  1
  Mo  Mo10  1  2.11617000  4.03982000  2.01915000  1
  Mo  Mo11  1  0.17818100  5.84034000  2.03057000  1
  Mo  Mo12  1  4.05317000  4.05658000  0.24756800  1
  Mo  Mo13  1  5.98072000  5.81443000  3.80435000  1
  Mo  Mo14  1  5.99291000  4.04909000  2.02494000  1
  Mo  Mo15  1  4.05741000  5.82681000  2.03208000  1
