# generated using pymatgen
data_Mo
_symmetry_space_group_name_H-M   'P 1'
_cell_length_a   8.50222844
_cell_length_b   6.88173902
_cell_length_c   3.43502212
_cell_angle_alpha   90.00000000
_cell_angle_beta   90.00000000
_cell_angle_gamma   90.00000000
_symmetry_Int_Tables_number   1
_chemical_formula_structural   Mo
_chemical_formula_sum   Mo16
_cell_volume   200.98354660
_cell_formula_units_Z   16
loop_
 _symmetry_equiv_pos_site_id
 _symmetry_equiv_pos_as_xyz
  1  'x, y, z'
loop_
 _atom_site_type_symbol
 _atom_site_label
 _atom_site_symmetry_multiplicity
 _atom_site_fract_x
 _atom_site_fract_y
 _atom_site_fract_z
 _atom_site_occupancy
  Mo  Mo0  1  1.91840000  2.33822000  0.31793000  1
  Mo  Mo1  1  1.91778000  0.61047500  2.01684000  1
  Mo  Mo2  1  -0.20075800  2.33448000  2.03456000  1
  Mo  Mo3  1  4.03160000  7.47826000  3.73027000  1
  Mo  Mo4  1  4.05011000  2.33026000  2.03256000  1
  Mo  Mo5  1  -0.18224100  4.03899000  3.74364000  1
  Mo  Mo6  1  1.92441000  5.77440000  0.31575300  1
  Mo  Mo7  1  1.93912000  4.05152000  2.01391000  1
  Mo  Mo8  1  -0.19976400  5.76409000  2.03772000  1
  Mo  Mo9  1  4.05959000  4.04907000  0.30768800  1
  Mo  Mo10  1  4.06011000  5.76521000  2.02401000  1
  Mo  Mo11  1  8.29819000  7.48664000  3.73094000  1
  Mo  Mo12  1  6.15612000  2.33010000  0.31837100  1
  Mo  Mo13  1  6.18143000  0.62003600  2.01834000  1
  Mo  Mo14  1  6.16864000  5.77275000  0.30850000  1
  Mo  Mo15  1  6.17505000  4.05550000  2.01394000  1
