# generated using pymatgen
data_Mo
_symmetry_space_group_name_H-M   'P 1'
_cell_length_a   8.17908307
_cell_length_b   6.97329265
_cell_length_c   3.48469353
_cell_angle_alpha   90.00000000
_cell_angle_beta   90.00000000
_cell_angle_gamma   90.00000000
_symmetry_Int_Tables_number   1
_chemical_formula_structural   Mo
_chemical_formula_sum   Mo16
_cell_volume   198.74998259
_cell_formula_units_Z   16
loop_
 _symmetry_equiv_pos_site_id
 _symmetry_equiv_pos_as_xyz
  1  'x, y, z'
loop_
 _atom_site_type_symbol
 _atom_site_label
 _atom_site_symmetry_multiplicity
 _atom_site_fract_x
 _atom_site_fract_y
 _atom_site_fract_z
 _atom_site_occupancy
  Mo  Mo0  1  -0.04300690  7.53280000  3.76537000  1
  Mo  Mo1  1  2.00653000  2.31132000  0.28417900  1
  Mo  Mo2  1  1.98958000  0.57191600  2.01623000  1
  Mo  Mo3  1  -0.03437950  2.30549000  2.03635000  1
  Mo  Mo4  1  4.04644000  7.52685000  3.76296000  1
  Mo  Mo5  1  6.09348000  2.30996000  0.28491700  1
  Mo  Mo6  1  6.07855000  0.57097000  2.01397000  1
  Mo  Mo7  1  4.03859000  2.30461000  2.03569000  1
  Mo  Mo8  1  8.14480000  4.04223000  0.26994800  1
  Mo  Mo9  1  2.01473000  5.79164000  0.28908800  1
  Mo  Mo10  1  2.01868000  4.05904000  2.02009000  1
  Mo  Mo11  1  -0.02919390  5.78720000  2.03794000  1
  Mo  Mo12  1  4.06036000  4.04776000  0.26783900  1
  Mo  Mo13  1  6.09923000  5.79619000  3.77502000  1
  Mo  Mo14  1  6.08531000  4.05510000  2.01770000  1
  Mo  Mo15  1  4.05121000  5.78693000  2.03803000  1
