# generated using pymatgen
data_Mo
_symmetry_space_group_name_H-M   'P 1'
_cell_length_a   7.58228225
_cell_length_b   7.16253018
_cell_length_c   3.57975316
_cell_angle_alpha   90.00000000
_cell_angle_beta   90.00000000
_cell_angle_gamma   90.00000000
_symmetry_Int_Tables_number   1
_chemical_formula_structural   Mo
_chemical_formula_sum   Mo16
_cell_volume   194.41039964
_cell_formula_units_Z   16
loop_
 _symmetry_equiv_pos_site_id
 _symmetry_equiv_pos_as_xyz
  1  'x, y, z'
loop_
 _atom_site_type_symbol
 _atom_site_label
 _atom_site_symmetry_multiplicity
 _atom_site_fract_x
 _atom_site_fract_y
 _atom_site_fract_z
 _atom_site_occupancy
  Mo  Mo0  1  0.26160800  7.63633000  3.82275000  1
  Mo  Mo1  1  2.15501000  2.25579000  0.23219400  1
  Mo  Mo2  1  2.17224000  0.46549400  2.02968000  1
  Mo  Mo3  1  0.25460100  2.25724000  2.02502000  1
  Mo  Mo4  1  4.05089000  7.64186000  3.81247000  1
  Mo  Mo5  1  5.94952000  2.26310000  0.23028400  1
  Mo  Mo6  1  5.95826000  0.45972000  2.02558000  1
  Mo  Mo7  1  4.05674000  2.26056000  2.02102000  1
  Mo  Mo8  1  7.84183000  4.05997000  0.24815700  1
  Mo  Mo9  1  2.15346000  5.83575000  0.22219300  1
  Mo  Mo10  1  2.14018000  4.04745000  2.04931000  1
  Mo  Mo11  1  0.24920900  5.84376000  2.01292000  1
  Mo  Mo12  1  4.04318000  4.04955000  0.23819800  1
  Mo  Mo13  1  5.94037000  5.83738000  3.79866000  1
  Mo  Mo14  1  5.94655000  4.04543000  2.04500000  1
  Mo  Mo15  1  4.04409000  5.84062000  2.00680000  1
