# generated using pymatgen
data_Mo
_symmetry_space_group_name_H-M   'P 1'
_cell_length_a   8.26205284
_cell_length_b   6.94776684
_cell_length_c   3.47256398
_cell_angle_alpha   90.00000000
_cell_angle_beta   90.00000000
_cell_angle_gamma   90.00000000
_symmetry_Int_Tables_number   1
_chemical_formula_structural   Mo
_chemical_formula_sum   Mo16
_cell_volume   199.33495397
_cell_formula_units_Z   16
loop_
 _symmetry_equiv_pos_site_id
 _symmetry_equiv_pos_as_xyz
  1  'x, y, z'
loop_
 _atom_site_type_symbol
 _atom_site_label
 _atom_site_symmetry_multiplicity
 _atom_site_fract_x
 _atom_site_fract_y
 _atom_site_fract_z
 _atom_site_occupancy
  Mo  Mo0  1  1.99488000  2.31690000  0.28824200  1
  Mo  Mo1  1  1.98250000  0.57399500  2.02724000  1
  Mo  Mo2  1  -0.07658350  2.31761000  2.02802000  1
  Mo  Mo3  1  4.06503000  7.52369000  3.76333000  1
  Mo  Mo4  1  4.04704000  2.30885000  2.01558000  1
  Mo  Mo5  1  -0.09897460  4.05017000  3.77822000  1
  Mo  Mo6  1  1.97968000  5.78076000  0.27557000  1
  Mo  Mo7  1  1.97922000  4.05136000  2.04225000  1
  Mo  Mo8  1  -0.08269130  5.78034000  2.01096000  1
  Mo  Mo9  1  4.04375000  4.05348000  0.29438000  1
  Mo  Mo10  1  4.04362000  5.78855000  2.01134000  1
  Mo  Mo11  1  8.18784000  7.53006000  3.77477000  1
  Mo  Mo12  1  6.12675000  2.31948000  0.28232400  1
  Mo  Mo13  1  6.11486000  0.57211200  2.02043000  1
  Mo  Mo14  1  6.12388000  5.78783000  0.27789800  1
  Mo  Mo15  1  6.10713000  4.04483000  2.03688000  1
