# generated using pymatgen
data_Mo
_symmetry_space_group_name_H-M   'P 1'
_cell_length_a   7.34501708
_cell_length_b   7.24979728
_cell_length_c   3.62566876
_cell_angle_alpha   90.00000000
_cell_angle_beta   90.00000000
_cell_angle_gamma   90.00000000
_symmetry_Int_Tables_number   1
_chemical_formula_structural   Mo
_chemical_formula_sum   Mo16
_cell_volume   193.06644419
_cell_formula_units_Z   16
loop_
 _symmetry_equiv_pos_site_id
 _symmetry_equiv_pos_as_xyz
  1  'x, y, z'
loop_
 _atom_site_type_symbol
 _atom_site_label
 _atom_site_symmetry_multiplicity
 _atom_site_fract_x
 _atom_site_fract_y
 _atom_site_fract_z
 _atom_site_occupancy
  Mo  Mo0  1  0.37159800  7.68306000  3.84045000  1
  Mo  Mo1  1  2.19941000  2.23769000  0.20096300  1
  Mo  Mo2  1  2.20572000  0.41466900  2.04058000  1
  Mo  Mo3  1  0.37548100  2.24501000  2.01073000  1
  Mo  Mo4  1  4.05244000  7.68523000  3.84838000  1
  Mo  Mo5  1  5.88428000  2.23206000  0.20232500  1
  Mo  Mo6  1  5.88797000  0.41827700  2.04361000  1
  Mo  Mo7  1  4.04944000  2.24565000  2.01377000  1
  Mo  Mo8  1  7.72094000  4.05852000  0.21357900  1
  Mo  Mo9  1  2.20560000  5.85677000  0.20513800  1
  Mo  Mo10  1  2.22211000  4.04039000  2.03045000  1
  Mo  Mo11  1  0.38043200  5.86448000  2.01639000  1
  Mo  Mo12  1  4.05843000  4.05944000  0.22154900  1
  Mo  Mo13  1  5.88557000  5.85313000  3.83263000  1
  Mo  Mo14  1  5.89957000  4.04339000  2.03362000  1
  Mo  Mo15  1  4.05599000  5.86223000  2.02017000  1
