# generated using pymatgen
data_Mo
_symmetry_space_group_name_H-M   'P 1'
_cell_length_a   7.51823536
_cell_length_b   7.18531448
_cell_length_c   3.59121394
_cell_angle_alpha   90.00000000
_cell_angle_beta   90.00000000
_cell_angle_gamma   90.00000000
_symmetry_Int_Tables_number   1
_chemical_formula_structural   Mo
_chemical_formula_sum   Mo16
_cell_volume   194.00055656
_cell_formula_units_Z   16
loop_
 _symmetry_equiv_pos_site_id
 _symmetry_equiv_pos_as_xyz
  1  'x, y, z'
loop_
 _atom_site_type_symbol
 _atom_site_label
 _atom_site_symmetry_multiplicity
 _atom_site_fract_x
 _atom_site_fract_y
 _atom_site_fract_z
 _atom_site_occupancy
  Mo  Mo0  1  0.29203900  7.63861000  3.82258000  1
  Mo  Mo1  1  2.17342000  2.25499000  0.23512300  1
  Mo  Mo2  1  2.16844000  0.46395500  2.01431000  1
  Mo  Mo3  1  0.28715900  2.25431000  2.03678000  1
  Mo  Mo4  1  4.05063000  7.63982000  3.81653000  1
  Mo  Mo5  1  5.93397000  2.26428000  0.23192500  1
  Mo  Mo6  1  5.93230000  0.45726300  2.01049000  1
  Mo  Mo7  1  4.06266000  2.25280000  2.03209000  1
  Mo  Mo8  1  7.81397000  4.04581000  0.21883100  1
  Mo  Mo9  1  2.16894000  5.84005000  0.23597600  1
  Mo  Mo10  1  2.14592000  4.05941000  2.01927000  1
  Mo  Mo11  1  0.28482800  5.84152000  2.03190000  1
  Mo  Mo12  1  4.05070000  4.04181000  0.21279000  1
  Mo  Mo13  1  5.93581000  5.84554000  3.83289000  1
  Mo  Mo14  1  5.92564000  4.05334000  2.01668000  1
  Mo  Mo15  1  4.05536000  5.84648000  2.04063000  1
