# generated using pymatgen
data_Mo
_symmetry_space_group_name_H-M   'P 1'
_cell_length_a   7.70309778
_cell_length_b   7.11836165
_cell_length_c   3.56018090
_cell_angle_alpha   90.00000000
_cell_angle_beta   90.00000000
_cell_angle_gamma   90.00000000
_symmetry_Int_Tables_number   1
_chemical_formula_structural   Mo
_chemical_formula_sum   Mo16
_cell_volume   195.21695098
_cell_formula_units_Z   16
loop_
 _symmetry_equiv_pos_site_id
 _symmetry_equiv_pos_as_xyz
  1  'x, y, z'
loop_
 _atom_site_type_symbol
 _atom_site_label
 _atom_site_symmetry_multiplicity
 _atom_site_fract_x
 _atom_site_fract_y
 _atom_site_fract_z
 _atom_site_occupancy
  Mo  Mo0  1  0.21698100  7.61259000  3.80140000  1
  Mo  Mo1  1  2.13724000  2.25910000  0.25186700  1
  Mo  Mo2  1  2.13345000  0.48634200  2.02490000  1
  Mo  Mo3  1  0.20553100  2.27880000  2.02995000  1
  Mo  Mo4  1  4.05900000  7.61265000  3.79506000  1
  Mo  Mo5  1  5.97379000  2.25996000  0.25083600  1
  Mo  Mo6  1  5.97344000  0.48807400  2.02129000  1
  Mo  Mo7  1  4.05653000  2.27299000  2.02518000  1
  Mo  Mo8  1  7.89236000  4.05416000  0.23922300  1
  Mo  Mo9  1  2.12074000  5.82733000  0.25947600  1
  Mo  Mo10  1  2.11818000  4.04503000  2.01380000  1
  Mo  Mo11  1  0.19845600  5.83648000  2.03971000  1
  Mo  Mo12  1  4.03034000  4.05425000  0.23259700  1
  Mo  Mo13  1  5.96626000  5.82674000  3.81508000  1
  Mo  Mo14  1  5.96738000  4.04558000  2.00978000  1
  Mo  Mo15  1  4.04725000  5.83993000  2.02965000  1
