# generated using pymatgen
data_Mo
_symmetry_space_group_name_H-M   'P 1'
_cell_length_a   8.25477459
_cell_length_b   6.94799000
_cell_length_c   3.47441006
_cell_angle_alpha   90.00000000
_cell_angle_beta   90.00000000
_cell_angle_gamma   90.00000000
_symmetry_Int_Tables_number   1
_chemical_formula_structural   Mo
_chemical_formula_sum   Mo16
_cell_volume   199.27163153
_cell_formula_units_Z   16
loop_
 _symmetry_equiv_pos_site_id
 _symmetry_equiv_pos_as_xyz
  1  'x, y, z'
loop_
 _atom_site_type_symbol
 _atom_site_label
 _atom_site_symmetry_multiplicity
 _atom_site_fract_x
 _atom_site_fract_y
 _atom_site_fract_z
 _atom_site_occupancy
  Mo  Mo0  1  1.99162000  2.32130000  0.28614000  1
  Mo  Mo1  1  1.98664000  0.58012400  2.02895000  1
  Mo  Mo2  1  -0.07402770  2.30935000  2.02848000  1
  Mo  Mo3  1  4.03958000  7.51694000  3.75600000  1
  Mo  Mo4  1  4.04521000  2.29860000  2.02844000  1
  Mo  Mo5  1  -0.07212450  4.04252000  3.76251000  1
  Mo  Mo6  1  1.98955000  5.79035000  0.28925900  1
  Mo  Mo7  1  1.99405000  4.06091000  2.01626000  1
  Mo  Mo8  1  -0.07287640  5.77514000  2.03515000  1
  Mo  Mo9  1  4.05346000  4.04469000  0.28579900  1
  Mo  Mo10  1  4.05037000  5.78711000  2.03297000  1
  Mo  Mo11  1  8.17473000  7.52187000  3.75868000  1
  Mo  Mo12  1  6.10465000  2.31759000  0.28541900  1
  Mo  Mo13  1  6.10801000  0.58345200  2.02877000  1
  Mo  Mo14  1  6.11672000  5.79462000  0.28673600  1
  Mo  Mo15  1  6.10964000  4.05543000  2.01601000  1
