# generated using pymatgen
data_Mo
_symmetry_space_group_name_H-M   'P 1'
_cell_length_a   8.18344945
_cell_length_b   6.96890205
_cell_length_c   3.48543191
_cell_angle_alpha   90.00000000
_cell_angle_beta   90.00000000
_cell_angle_gamma   90.00000000
_symmetry_Int_Tables_number   1
_chemical_formula_structural   Mo
_chemical_formula_sum   Mo16
_cell_volume   198.77298853
_cell_formula_units_Z   16
loop_
 _symmetry_equiv_pos_site_id
 _symmetry_equiv_pos_as_xyz
  1  'x, y, z'
loop_
 _atom_site_type_symbol
 _atom_site_label
 _atom_site_symmetry_multiplicity
 _atom_site_fract_x
 _atom_site_fract_y
 _atom_site_fract_z
 _atom_site_occupancy
  Mo  Mo0  1  -0.04507530  7.53871000  3.77079000  1
  Mo  Mo1  1  2.00936000  2.31152000  0.28406900  1
  Mo  Mo2  1  2.00327000  0.56190500  2.02939000  1
  Mo  Mo3  1  -0.03744380  2.31687000  2.03115000  1
  Mo  Mo4  1  4.04513000  7.53157000  3.76700000  1
  Mo  Mo5  1  6.09462000  2.30248000  0.27582000  1
  Mo  Mo6  1  6.09797000  0.57023900  2.02668000  1
  Mo  Mo7  1  4.04100000  2.30858000  2.01527000  1
  Mo  Mo8  1  8.14384000  4.04894000  0.27712400  1
  Mo  Mo9  1  2.00882000  5.79001000  0.29021300  1
  Mo  Mo10  1  2.01009000  4.04697000  2.01622000  1
  Mo  Mo11  1  -0.04053970  5.78685000  2.03587000  1
  Mo  Mo12  1  4.05731000  4.05766000  0.27380200  1
  Mo  Mo13  1  6.10067000  5.78896000  3.77502000  1
  Mo  Mo14  1  6.08207000  4.04855000  2.01468000  1
  Mo  Mo15  1  4.04547000  5.79020000  2.03147000  1
