# generated using pymatgen
data_Mo
_symmetry_space_group_name_H-M   'P 1'
_cell_length_a   7.35229534
_cell_length_b   7.24806848
_cell_length_c   3.62387490
_cell_angle_alpha   90.00000000
_cell_angle_beta   90.00000000
_cell_angle_gamma   90.00000000
_symmetry_Int_Tables_number   1
_chemical_formula_structural   Mo
_chemical_formula_sum   Mo16
_cell_volume   193.11607655
_cell_formula_units_Z   16
loop_
 _symmetry_equiv_pos_site_id
 _symmetry_equiv_pos_as_xyz
  1  'x, y, z'
loop_
 _atom_site_type_symbol
 _atom_site_label
 _atom_site_symmetry_multiplicity
 _atom_site_fract_x
 _atom_site_fract_y
 _atom_site_fract_z
 _atom_site_occupancy
  Mo  Mo0  1  0.38645300  7.67325000  3.82838000  1
  Mo  Mo1  1  2.22183000  2.24529000  0.22412500  1
  Mo  Mo2  1  2.21062000  0.42387700  2.02213000  1
  Mo  Mo3  1  0.37525400  2.24310000  2.03803000  1
  Mo  Mo4  1  4.05202000  7.67144000  3.82569000  1
  Mo  Mo5  1  5.88770000  2.23738000  0.21575400  1
  Mo  Mo6  1  5.89452000  0.43241700  2.02106000  1
  Mo  Mo7  1  4.05754000  2.22687000  2.02442000  1
  Mo  Mo8  1  7.71709000  4.04473000  0.21856800  1
  Mo  Mo9  1  2.20595000  5.86086000  0.20977500  1
  Mo  Mo10  1  2.20490000  4.05559000  2.02510000  1
  Mo  Mo11  1  0.36716400  5.85543000  2.02364000  1
  Mo  Mo12  1  4.03901000  4.04567000  0.21590700  1
  Mo  Mo13  1  5.88777000  5.86156000  3.83446000  1
  Mo  Mo14  1  5.88558000  4.05380000  2.02525000  1
  Mo  Mo15  1  4.05430000  5.86874000  2.02384000  1
