# generated using pymatgen
data_Mo
_symmetry_space_group_name_H-M   'P 1'
_cell_length_a   8.38578025
_cell_length_b   6.90761018
_cell_length_c   3.45542312
_cell_angle_alpha   90.00000000
_cell_angle_beta   90.00000000
_cell_angle_gamma   90.00000000
_symmetry_Int_Tables_number   1
_chemical_formula_structural   Mo
_chemical_formula_sum   Mo16
_cell_volume   200.15780619
_cell_formula_units_Z   16
loop_
 _symmetry_equiv_pos_site_id
 _symmetry_equiv_pos_as_xyz
  1  'x, y, z'
loop_
 _atom_site_type_symbol
 _atom_site_label
 _atom_site_symmetry_multiplicity
 _atom_site_fract_x
 _atom_site_fract_y
 _atom_site_fract_z
 _atom_site_occupancy
  Mo  Mo0  1  1.94121000  2.31738000  0.30931100  1
  Mo  Mo1  1  1.95301000  0.60457700  2.01990000  1
  Mo  Mo2  1  -0.15019000  2.31822000  2.03514000  1
  Mo  Mo3  1  4.04149000  7.49867000  3.73615000  1
  Mo  Mo4  1  4.05663000  2.32830000  2.03292000  1
  Mo  Mo5  1  -0.13422500  4.04911000  3.75984000  1
  Mo  Mo6  1  1.95182000  5.77785000  0.29483400  1
  Mo  Mo7  1  1.95339000  4.05451000  2.02150000  1
  Mo  Mo8  1  -0.14697900  5.77992000  2.02239000  1
  Mo  Mo9  1  4.05374000  4.04432000  0.29912700  1
  Mo  Mo10  1  4.05774000  5.77315000  2.02896000  1
  Mo  Mo11  1  8.23711000  7.49665000  3.74127000  1
  Mo  Mo12  1  6.14353000  2.32539000  0.30766000  1
  Mo  Mo13  1  6.15694000  0.59727700  2.01713000  1
  Mo  Mo14  1  6.14166000  5.78303000  0.29906600  1
  Mo  Mo15  1  6.15734000  4.05163000  2.01937000  1
