# generated using pymatgen
data_Mo
_symmetry_space_group_name_H-M   'P 1'
_cell_length_a   8.68126902
_cell_length_b   6.84280145
_cell_length_c   3.40717316
_cell_angle_alpha   90.00000000
_cell_angle_beta   90.00000000
_cell_angle_gamma   90.00000000
_symmetry_Int_Tables_number   1
_chemical_formula_structural   Mo
_chemical_formula_sum   Mo16
_cell_volume   202.40039649
_cell_formula_units_Z   16
loop_
 _symmetry_equiv_pos_site_id
 _symmetry_equiv_pos_as_xyz
  1  'x, y, z'
loop_
 _atom_site_type_symbol
 _atom_site_label
 _atom_site_symmetry_multiplicity
 _atom_site_fract_x
 _atom_site_fract_y
 _atom_site_fract_z
 _atom_site_occupancy
  Mo  Mo0  1  1.86974000  2.32781000  0.32992100  1
  Mo  Mo1  1  1.86001000  0.62344800  2.01235000  1
  Mo  Mo2  1  -0.29220600  2.34557000  2.02493000  1
  Mo  Mo3  1  4.04578000  7.47090000  3.72492000  1
  Mo  Mo4  1  4.04460000  2.34947000  2.03538000  1
  Mo  Mo5  1  -0.28906000  4.05289000  3.72315000  1
  Mo  Mo6  1  1.87090000  5.75419000  0.32568300  1
  Mo  Mo7  1  1.90350000  4.04439000  2.02779000  1
  Mo  Mo8  1  -0.28722200  5.77010000  2.01817000  1
  Mo  Mo9  1  4.06096000  4.06113000  0.31672900  1
  Mo  Mo10  1  4.06106000  5.77004000  2.02412000  1
  Mo  Mo11  1  8.38612000  7.48016000  3.72361000  1
  Mo  Mo12  1  6.20993000  2.33116000  0.33574800  1
  Mo  Mo13  1  6.21980000  0.61926800  2.01297000  1
  Mo  Mo14  1  6.22264000  5.76199000  0.32850300  1
  Mo  Mo15  1  6.23220000  4.03749000  2.02885000  1
