# generated using pymatgen
data_Mo
_symmetry_space_group_name_H-M   'P 1'
_cell_length_a   8.29116489
_cell_length_b   6.93522877
_cell_length_c   3.46982217
_cell_angle_alpha   90.00000000
_cell_angle_beta   90.00000000
_cell_angle_gamma   90.00000000
_symmetry_Int_Tables_number   1
_chemical_formula_structural   Mo
_chemical_formula_sum   Mo16
_cell_volume   199.51867906
_cell_formula_units_Z   16
loop_
 _symmetry_equiv_pos_site_id
 _symmetry_equiv_pos_as_xyz
  1  'x, y, z'
loop_
 _atom_site_type_symbol
 _atom_site_label
 _atom_site_symmetry_multiplicity
 _atom_site_fract_x
 _atom_site_fract_y
 _atom_site_fract_z
 _atom_site_occupancy
  Mo  Mo0  1  1.97417000  2.31961000  0.29488700  1
  Mo  Mo1  1  1.96279000  0.57512600  2.02058000  1
  Mo  Mo2  1  -0.09492340  2.32460000  2.03293000  1
  Mo  Mo3  1  4.04923000  7.51735000  3.75842000  1
  Mo  Mo4  1  4.04475000  2.31982000  2.02597000  1
  Mo  Mo5  1  -0.09620480  4.04764000  3.75811000  1
  Mo  Mo6  1  1.97773000  5.77705000  0.28646300  1
  Mo  Mo7  1  1.97760000  4.04633000  2.03008000  1
  Mo  Mo8  1  -0.09636470  5.78627000  2.02184000  1
  Mo  Mo9  1  4.06469000  4.05778000  0.29227500  1
  Mo  Mo10  1  4.05241000  5.78780000  2.02196000  1
  Mo  Mo11  1  8.18604000  7.52492000  3.75427000  1
  Mo  Mo12  1  6.12952000  2.30929000  0.29049500  1
  Mo  Mo13  1  6.12700000  0.58344000  2.02242000  1
  Mo  Mo14  1  6.13547000  5.77407000  0.28705200  1
  Mo  Mo15  1  6.11491000  4.04890000  2.03243000  1
