# generated using pymatgen
data_Mo
_symmetry_space_group_name_H-M   'P 1'
_cell_length_a   8.43527062
_cell_length_b   6.90441555
_cell_length_c   3.44250393
_cell_angle_alpha   90.00000000
_cell_angle_beta   90.00000000
_cell_angle_gamma   90.00000000
_symmetry_Int_Tables_number   1
_chemical_formula_structural   Mo
_chemical_formula_sum   Mo16
_cell_volume   200.49354128
_cell_formula_units_Z   16
loop_
 _symmetry_equiv_pos_site_id
 _symmetry_equiv_pos_as_xyz
  1  'x, y, z'
loop_
 _atom_site_type_symbol
 _atom_site_label
 _atom_site_symmetry_multiplicity
 _atom_site_fract_x
 _atom_site_fract_y
 _atom_site_fract_z
 _atom_site_occupancy
  Mo  Mo0  1  1.93543000  2.31710000  0.30911800  1
  Mo  Mo1  1  1.92947000  0.58974600  2.02546000  1
  Mo  Mo2  1  -0.17185700  2.33127000  2.02370000  1
  Mo  Mo3  1  4.04779000  7.50682000  3.74405000  1
  Mo  Mo4  1  4.04658000  2.32312000  2.02717000  1
  Mo  Mo5  1  -0.16587900  4.05048000  3.72987000  1
  Mo  Mo6  1  1.93654000  5.76892000  0.31504300  1
  Mo  Mo7  1  1.94716000  4.04634000  2.01008000  1
  Mo  Mo8  1  -0.16762900  5.78345000  2.03155000  1
  Mo  Mo9  1  4.06108000  4.05916000  0.29778000  1
  Mo  Mo10  1  4.05534000  5.79100000  2.03983000  1
  Mo  Mo11  1  8.26033000  7.50998000  3.73367000  1
  Mo  Mo12  1  6.15558000  2.31154000  0.30973400  1
  Mo  Mo13  1  6.15989000  0.59628900  2.02815000  1
  Mo  Mo14  1  6.16860000  5.76881000  0.31920300  1
  Mo  Mo15  1  6.16630000  4.04596000  2.01307000  1
