# generated using pymatgen
data_Mo
_symmetry_space_group_name_H-M   'P 1'
_cell_length_a   7.54006916
_cell_length_b   7.17471904
_cell_length_c   3.58859324
_cell_angle_alpha   90.00000000
_cell_angle_beta   90.00000000
_cell_angle_gamma   90.00000000
_symmetry_Int_Tables_number   1
_chemical_formula_structural   Mo
_chemical_formula_sum   Mo16
_cell_volume   194.13527865
_cell_formula_units_Z   16
loop_
 _symmetry_equiv_pos_site_id
 _symmetry_equiv_pos_as_xyz
  1  'x, y, z'
loop_
 _atom_site_type_symbol
 _atom_site_label
 _atom_site_symmetry_multiplicity
 _atom_site_fract_x
 _atom_site_fract_y
 _atom_site_fract_z
 _atom_site_occupancy
  Mo  Mo0  1  0.27673000  7.62682000  3.81597000  1
  Mo  Mo1  1  2.16618000  2.25595000  0.23683800  1
  Mo  Mo2  1  2.17290000  0.47511600  2.01061000  1
  Mo  Mo3  1  0.28321500  2.25483000  2.03952000  1
  Mo  Mo4  1  4.04493000  7.63000000  3.80980000  1
  Mo  Mo5  1  5.93301000  2.26210000  0.23797900  1
  Mo  Mo6  1  5.93562000  0.46949200  2.00754000  1
  Mo  Mo7  1  4.05428000  2.24998000  2.04129000  1
  Mo  Mo8  1  7.82265000  4.04657000  0.22775100  1
  Mo  Mo9  1  2.16550000  5.84603000  0.22950400  1
  Mo  Mo10  1  2.15540000  4.06282000  2.02915000  1
  Mo  Mo11  1  0.28118000  5.83353000  2.02873000  1
  Mo  Mo12  1  4.05185000  4.03894000  0.22126000  1
  Mo  Mo13  1  5.93488000  5.85316000  3.81906000  1
  Mo  Mo14  1  5.93174000  4.05434000  2.02610000  1
  Mo  Mo15  1  4.04987000  5.84029000  2.03031000  1
