# generated using pymatgen
data_Mo
_symmetry_space_group_name_H-M   'P 1'
_cell_length_a   8.44982713
_cell_length_b   6.89045459
_cell_length_c   3.44536996
_cell_angle_alpha   90.00000000
_cell_angle_beta   90.00000000
_cell_angle_gamma   90.00000000
_symmetry_Int_Tables_number   1
_chemical_formula_structural   Mo
_chemical_formula_sum   Mo16
_cell_volume   200.60029250
_cell_formula_units_Z   16
loop_
 _symmetry_equiv_pos_site_id
 _symmetry_equiv_pos_as_xyz
  1  'x, y, z'
loop_
 _atom_site_type_symbol
 _atom_site_label
 _atom_site_symmetry_multiplicity
 _atom_site_fract_x
 _atom_site_fract_y
 _atom_site_fract_z
 _atom_site_occupancy
  Mo  Mo0  1  1.94503000  2.32883000  0.29844100  1
  Mo  Mo1  1  1.95686000  0.61806000  2.02555000  1
  Mo  Mo2  1  -0.17046900  2.31789000  2.02904000  1
  Mo  Mo3  1  4.05101000  7.48994000  3.74045000  1
  Mo  Mo4  1  4.05368000  2.33109000  2.03205000  1
  Mo  Mo5  1  -0.17863700  4.04731000  3.76073000  1
  Mo  Mo6  1  1.94495000  5.77612000  0.29174500  1
  Mo  Mo7  1  1.92827000  4.05698000  2.03444000  1
  Mo  Mo8  1  -0.17966100  5.76849000  2.02450000  1
  Mo  Mo9  1  4.03522000  4.04161000  0.30633700  1
  Mo  Mo10  1  4.04012000  5.75631000  2.01795000  1
  Mo  Mo11  1  8.28058000  7.48802000  3.74939000  1
  Mo  Mo12  1  6.16976000  2.33847000  0.30222800  1
  Mo  Mo13  1  6.17172000  0.60722500  2.02222000  1
  Mo  Mo14  1  6.15279000  5.77789000  0.28931400  1
  Mo  Mo15  1  6.14894000  4.05578000  2.03026000  1
