# generated using pymatgen
data_Mo
_symmetry_space_group_name_H-M   'P 1'
_cell_length_a   8.11503618
_cell_length_b   6.98986453
_cell_length_c   3.49543977
_cell_angle_alpha   90.00000000
_cell_angle_beta   90.00000000
_cell_angle_gamma   90.00000000
_symmetry_Int_Tables_number   1
_chemical_formula_structural   Mo
_chemical_formula_sum   Mo16
_cell_volume   198.27184227
_cell_formula_units_Z   16
loop_
 _symmetry_equiv_pos_site_id
 _symmetry_equiv_pos_as_xyz
  1  'x, y, z'
loop_
 _atom_site_type_symbol
 _atom_site_label
 _atom_site_symmetry_multiplicity
 _atom_site_fract_x
 _atom_site_fract_y
 _atom_site_fract_z
 _atom_site_occupancy
  Mo  Mo0  1  -0.00016504  7.55511000  3.78628000  1
  Mo  Mo1  1  2.02440000  2.29938000  0.27244300  1
  Mo  Mo2  1  2.02067000  0.54815600  2.03395000  1
  Mo  Mo3  1  -0.00925773  2.30163000  2.01839000  1
  Mo  Mo4  1  4.05317000  7.54665000  3.77736000  1
  Mo  Mo5  1  6.08441000  2.30051000  0.27074200  1
  Mo  Mo6  1  6.09899000  0.54722700  2.02838000  1
  Mo  Mo7  1  4.05736000  2.30086000  2.01257000  1
  Mo  Mo8  1  8.09616000  4.05089000  0.28165200  1
  Mo  Mo9  1  2.01513000  5.79486000  0.27898200  1
  Mo  Mo10  1  2.01857000  4.04549000  2.03347000  1
  Mo  Mo11  1  -0.01905540  5.80496000  2.02299000  1
  Mo  Mo12  1  4.03758000  4.05819000  0.27239400  1
  Mo  Mo13  1  6.07756000  5.79928000  3.77138000  1
  Mo  Mo14  1  6.07630000  4.04280000  2.02813000  1
  Mo  Mo15  1  4.05316000  5.80401000  2.01544000  1
