# generated using pymatgen
data_Mo
_symmetry_space_group_name_H-M   'P 1'
_cell_length_a   7.28533706
_cell_length_b   7.27525184
_cell_length_c   3.63744664
_cell_angle_alpha   90.00000000
_cell_angle_beta   90.00000000
_cell_angle_gamma   90.00000000
_symmetry_Int_Tables_number   1
_chemical_formula_structural   Mo
_chemical_formula_sum   Mo16
_cell_volume   192.79435426
_cell_formula_units_Z   16
loop_
 _symmetry_equiv_pos_site_id
 _symmetry_equiv_pos_as_xyz
  1  'x, y, z'
loop_
 _atom_site_type_symbol
 _atom_site_label
 _atom_site_symmetry_multiplicity
 _atom_site_fract_x
 _atom_site_fract_y
 _atom_site_fract_z
 _atom_site_occupancy
  Mo  Mo0  1  0.41719000  7.68667000  3.84184000  1
  Mo  Mo1  1  2.22806000  2.23391000  0.21083200  1
  Mo  Mo2  1  2.23580000  0.40999100  2.02272000  1
  Mo  Mo3  1  0.40162600  2.22920000  2.03172000  1
  Mo  Mo4  1  4.06231000  7.69418000  3.83463000  1
  Mo  Mo5  1  5.87984000  2.23698000  0.20930700  1
  Mo  Mo6  1  5.87738000  0.40893000  2.02075000  1
  Mo  Mo7  1  4.06032000  2.23488000  2.02711000  1
  Mo  Mo8  1  7.68760000  4.05474000  0.21809100  1
  Mo  Mo9  1  2.22491000  5.86707000  0.20335700  1
  Mo  Mo10  1  2.21118000  4.04723000  2.03016000  1
  Mo  Mo11  1  0.39856200  5.87185000  2.02734000  1
  Mo  Mo12  1  4.03915000  4.04564000  0.21089100  1
  Mo  Mo13  1  5.86530000  5.86152000  3.83302000  1
  Mo  Mo14  1  5.87703000  4.05315000  2.02737000  1
  Mo  Mo15  1  4.04840000  5.86405000  2.01341000  1
