# generated using pymatgen
data_Mo
_symmetry_space_group_name_H-M   'P 1'
_cell_length_a   7.29407075
_cell_length_b   7.27182922
_cell_length_c   3.63533831
_cell_angle_alpha   90.00000000
_cell_angle_beta   90.00000000
_cell_angle_gamma   90.00000000
_symmetry_Int_Tables_number   1
_chemical_formula_structural   Mo
_chemical_formula_sum   Mo16
_cell_volume   192.82283996
_cell_formula_units_Z   16
loop_
 _symmetry_equiv_pos_site_id
 _symmetry_equiv_pos_as_xyz
  1  'x, y, z'
loop_
 _atom_site_type_symbol
 _atom_site_label
 _atom_site_symmetry_multiplicity
 _atom_site_fract_x
 _atom_site_fract_y
 _atom_site_fract_z
 _atom_site_occupancy
  Mo  Mo0  1  0.39583200  7.69367000  3.85519000  1
  Mo  Mo1  1  2.21547000  2.22616000  0.19762400  1
  Mo  Mo2  1  2.22468000  0.41069100  2.03481000  1
  Mo  Mo3  1  0.40010300  2.23105000  2.01400000  1
  Mo  Mo4  1  4.03895000  7.69279000  3.85468000  1
  Mo  Mo5  1  5.86831000  2.23185000  0.19675200  1
  Mo  Mo6  1  5.88144000  0.40371300  2.03337000  1
  Mo  Mo7  1  4.05256000  2.24027000  2.01369000  1
  Mo  Mo8  1  7.70703000  4.05722000  0.20537400  1
  Mo  Mo9  1  2.22813000  5.85931000  0.20115900  1
  Mo  Mo10  1  2.23098000  4.04509000  2.03604000  1
  Mo  Mo11  1  0.40221000  5.87528000  2.01200000  1
  Mo  Mo12  1  4.05593000  4.05692000  0.20506100  1
  Mo  Mo13  1  5.86917000  5.86547000  3.84434000  1
  Mo  Mo14  1  5.87782000  4.04088000  2.03582000  1
  Mo  Mo15  1  4.05733000  5.86963000  2.02478000  1
