# generated using pymatgen
data_Mo
_symmetry_space_group_name_H-M   'P 1'
_cell_length_a   7.84283666
_cell_length_b   7.07343990
_cell_length_c   3.53710198
_cell_angle_alpha   90.00000000
_cell_angle_beta   90.00000000
_cell_angle_gamma   90.00000000
_symmetry_Int_Tables_number   1
_chemical_formula_structural   Mo
_chemical_formula_sum   Mo16
_cell_volume   196.22368163
_cell_formula_units_Z   16
loop_
 _symmetry_equiv_pos_site_id
 _symmetry_equiv_pos_as_xyz
  1  'x, y, z'
loop_
 _atom_site_type_symbol
 _atom_site_label
 _atom_site_symmetry_multiplicity
 _atom_site_fract_x
 _atom_site_fract_y
 _atom_site_fract_z
 _atom_site_occupancy
  Mo  Mo0  1  0.12614600  7.58094000  3.80488000  1
  Mo  Mo1  1  2.09078000  2.29000000  0.25192300  1
  Mo  Mo2  1  2.08827000  0.51498600  2.03307000  1
  Mo  Mo3  1  0.12761400  2.26553000  2.02025000  1
  Mo  Mo4  1  4.03844000  7.58484000  3.80394000  1
  Mo  Mo5  1  6.00716000  2.28880000  0.24448900  1
  Mo  Mo6  1  6.00165000  0.51584100  2.03310000  1
  Mo  Mo7  1  4.05453000  2.27466000  2.00798000  1
  Mo  Mo8  1  7.98852000  4.04630000  0.26975700  1
  Mo  Mo9  1  2.10256000  5.83314000  0.24951500  1
  Mo  Mo10  1  2.08254000  4.04869000  2.02767000  1
  Mo  Mo11  1  0.13212300  5.82211000  2.01795000  1
  Mo  Mo12  1  4.05093000  4.04249000  0.26876700  1
  Mo  Mo13  1  6.00664000  5.82351000  3.78574000  1
  Mo  Mo14  1  6.00540000  4.05855000  2.02844000  1
  Mo  Mo15  1  4.05387000  5.80961000  2.01543000  1
