# generated using pymatgen
data_Mo
_symmetry_space_group_name_H-M   'P 1'
_cell_length_a   8.66525707
_cell_length_b   6.83681238
_cell_length_c   3.41401386
_cell_angle_alpha   90.00000000
_cell_angle_beta   90.00000000
_cell_angle_gamma   90.00000000
_symmetry_Int_Tables_number   1
_chemical_formula_structural   Mo
_chemical_formula_sum   Mo16
_cell_volume   202.25552456
_cell_formula_units_Z   16
loop_
 _symmetry_equiv_pos_site_id
 _symmetry_equiv_pos_as_xyz
  1  'x, y, z'
loop_
 _atom_site_type_symbol
 _atom_site_label
 _atom_site_symmetry_multiplicity
 _atom_site_fract_x
 _atom_site_fract_y
 _atom_site_fract_z
 _atom_site_occupancy
  Mo  Mo0  1  1.88539000  2.35497000  0.30782900  1
  Mo  Mo1  1  1.89538000  0.63304100  2.03782000  1
  Mo  Mo2  1  -0.28097800  2.33466000  2.02147000  1
  Mo  Mo3  1  4.04339000  7.46711000  3.73417000  1
  Mo  Mo4  1  4.05590000  2.33261000  2.01390000  1
  Mo  Mo5  1  -0.26993900  4.04643000  3.74558000  1
  Mo  Mo6  1  1.89053000  5.76654000  0.31287400  1
  Mo  Mo7  1  1.87303000  4.05301000  2.02523000  1
  Mo  Mo8  1  -0.28279100  5.75277000  2.03013000  1
  Mo  Mo9  1  4.04788000  4.03867000  0.32339700  1
  Mo  Mo10  1  4.04588000  5.75033000  2.01812000  1
  Mo  Mo11  1  8.38211000  7.45917000  3.74280000  1
  Mo  Mo12  1  6.21495000  2.35653000  0.30767600  1
  Mo  Mo13  1  6.21251000  0.63374400  2.03452000  1
  Mo  Mo14  1  6.20858000  5.76398000  0.30956200  1
  Mo  Mo15  1  6.21292000  4.05643000  2.02090000  1
