# generated using pymatgen
data_Mo
_symmetry_space_group_name_H-M   'P 1'
_cell_length_a   8.66380161
_cell_length_b   6.84067655
_cell_length_c   3.41246295
_cell_angle_alpha   90.00000000
_cell_angle_beta   90.00000000
_cell_angle_gamma   90.00000000
_symmetry_Int_Tables_number   1
_chemical_formula_structural   Mo
_chemical_formula_sum   Mo16
_cell_volume   202.24393170
_cell_formula_units_Z   16
loop_
 _symmetry_equiv_pos_site_id
 _symmetry_equiv_pos_as_xyz
  1  'x, y, z'
loop_
 _atom_site_type_symbol
 _atom_site_label
 _atom_site_symmetry_multiplicity
 _atom_site_fract_x
 _atom_site_fract_y
 _atom_site_fract_z
 _atom_site_occupancy
  Mo  Mo0  1  1.88714000  2.35311000  0.31182700  1
  Mo  Mo1  1  1.89718000  0.63298700  2.03237000  1
  Mo  Mo2  1  -0.27717600  2.33260000  2.02256000  1
  Mo  Mo3  1  4.04655000  7.46712000  3.73117000  1
  Mo  Mo4  1  4.05594000  2.33371000  2.01899000  1
  Mo  Mo5  1  -0.26997600  4.04545000  3.74470000  1
  Mo  Mo6  1  1.89150000  5.76714000  0.31573800  1
  Mo  Mo7  1  1.86996000  4.05450000  2.02525000  1
  Mo  Mo8  1  -0.28023500  5.75435000  2.02974000  1
  Mo  Mo9  1  4.04760000  4.03798000  0.32299000  1
  Mo  Mo10  1  4.04397000  5.75010000  2.01768000  1
  Mo  Mo11  1  8.38290000  7.46052000  3.74100000  1
  Mo  Mo12  1  6.21620000  2.35738000  0.31352100  1
  Mo  Mo13  1  6.21137000  0.63036400  2.02850000  1
  Mo  Mo14  1  6.20736000  5.76684000  0.31158400  1
  Mo  Mo15  1  6.20590000  4.05586000  2.01993000  1
