# generated using pymatgen
data_Mo
_symmetry_space_group_name_H-M   'P 1'
_cell_length_a   7.32755014
_cell_length_b   7.25697544
_cell_length_c   3.62927532
_cell_angle_alpha   90.00000000
_cell_angle_beta   90.00000000
_cell_angle_gamma   90.00000000
_symmetry_Int_Tables_number   1
_chemical_formula_structural   Mo
_chemical_formula_sum   Mo16
_cell_volume   192.98980535
_cell_formula_units_Z   16
loop_
 _symmetry_equiv_pos_site_id
 _symmetry_equiv_pos_as_xyz
  1  'x, y, z'
loop_
 _atom_site_type_symbol
 _atom_site_label
 _atom_site_symmetry_multiplicity
 _atom_site_fract_x
 _atom_site_fract_y
 _atom_site_fract_z
 _atom_site_occupancy
  Mo  Mo0  1  0.39577300  7.66846000  3.82693000  1
  Mo  Mo1  1  2.22458000  2.23737000  0.21895900  1
  Mo  Mo2  1  2.22053000  0.42642400  2.02355000  1
  Mo  Mo3  1  0.38621300  2.22906000  2.03940000  1
  Mo  Mo4  1  4.05520000  7.67743000  3.82688000  1
  Mo  Mo5  1  5.88183000  2.23597000  0.21217900  1
  Mo  Mo6  1  5.86637000  0.43060500  2.02388000  1
  Mo  Mo7  1  4.05635000  2.22954000  2.02758000  1
  Mo  Mo8  1  7.71445000  4.04761000  0.20902600  1
  Mo  Mo9  1  2.22184000  5.87288000  0.21172700  1
  Mo  Mo10  1  2.20946000  4.05203000  2.01733000  1
  Mo  Mo11  1  0.39094900  5.86543000  2.03421000  1
  Mo  Mo12  1  4.03775000  4.04096000  0.20886900  1
  Mo  Mo13  1  5.87649000  5.86293000  3.84031000  1
  Mo  Mo14  1  5.88413000  4.06132000  2.01848000  1
  Mo  Mo15  1  4.05053000  5.86199000  2.03143000  1
