# generated using pymatgen
data_Mo
_symmetry_space_group_name_H-M   'P 1'
_cell_length_a   7.65215145
_cell_length_b   7.13564411
_cell_length_c   3.56870389
_cell_angle_alpha   90.00000000
_cell_angle_beta   90.00000000
_cell_angle_gamma   90.00000000
_symmetry_Int_Tables_number   1
_chemical_formula_structural   Mo
_chemical_formula_sum   Mo16
_cell_volume   194.86204346
_cell_formula_units_Z   16
loop_
 _symmetry_equiv_pos_site_id
 _symmetry_equiv_pos_as_xyz
  1  'x, y, z'
loop_
 _atom_site_type_symbol
 _atom_site_label
 _atom_site_symmetry_multiplicity
 _atom_site_fract_x
 _atom_site_fract_y
 _atom_site_fract_z
 _atom_site_occupancy
  Mo  Mo0  1  0.21470300  7.62579000  3.80445000  1
  Mo  Mo1  1  2.14340000  2.25920000  0.25298700  1
  Mo  Mo2  1  2.13637000  0.47759500  2.01009000  1
  Mo  Mo3  1  0.22850700  2.27478000  2.03528000  1
  Mo  Mo4  1  4.04388000  7.61997000  3.79994000  1
  Mo  Mo5  1  5.96204000  2.26256000  0.25307700  1
  Mo  Mo6  1  5.95561000  0.47441800  2.00769000  1
  Mo  Mo7  1  4.04307000  2.26447000  2.03585000  1
  Mo  Mo8  1  7.87650000  4.05223000  0.23834700  1
  Mo  Mo9  1  2.13974000  5.82273000  0.24179300  1
  Mo  Mo10  1  2.13865000  4.05173000  2.03009000  1
  Mo  Mo11  1  0.22934500  5.83759000  2.01956000  1
  Mo  Mo12  1  4.05897000  4.05384000  0.23371900  1
  Mo  Mo13  1  5.97485000  5.83208000  3.81439000  1
  Mo  Mo14  1  5.95567000  4.04082000  2.02816000  1
  Mo  Mo15  1  4.04653000  5.85020000  2.02589000  1
