# generated using pymatgen
data_Mo
_symmetry_space_group_name_H-M   'P 1'
_cell_length_a   8.20237233
_cell_length_b   6.96609712
_cell_length_c   3.48131418
_cell_angle_alpha   90.00000000
_cell_angle_beta   90.00000000
_cell_angle_gamma   90.00000000
_symmetry_Int_Tables_number   1
_chemical_formula_structural   Mo
_chemical_formula_sum   Mo16
_cell_volume   198.91714775
_cell_formula_units_Z   16
loop_
 _symmetry_equiv_pos_site_id
 _symmetry_equiv_pos_as_xyz
  1  'x, y, z'
loop_
 _atom_site_type_symbol
 _atom_site_label
 _atom_site_symmetry_multiplicity
 _atom_site_fract_x
 _atom_site_fract_y
 _atom_site_fract_z
 _atom_site_occupancy
  Mo  Mo0  1  -0.05528150  7.52302000  3.75189000  1
  Mo  Mo1  1  2.00186000  2.31295000  0.29225700  1
  Mo  Mo2  1  2.00290000  0.57645800  2.00582000  1
  Mo  Mo3  1  -0.04852290  2.29445000  2.03683000  1
  Mo  Mo4  1  4.04910000  7.52868000  3.75977000  1
  Mo  Mo5  1  6.10815000  2.31559000  0.29815000  1
  Mo  Mo6  1  6.09471000  0.57316500  2.00912000  1
  Mo  Mo7  1  4.04678000  2.30890000  2.04542000  1
  Mo  Mo8  1  8.15132000  4.04226000  0.27651300  1
  Mo  Mo9  1  2.01014000  5.79629000  0.28493300  1
  Mo  Mo10  1  2.00026000  4.05698000  2.02196000  1
  Mo  Mo11  1  -0.04745790  5.79526000  2.02809000  1
  Mo  Mo12  1  4.04646000  4.04100000  0.28483400  1
  Mo  Mo13  1  6.09869000  5.79062000  3.76782000  1
  Mo  Mo14  1  6.09430000  4.06384000  2.02464000  1
  Mo  Mo15  1  4.04422000  5.78055000  2.03063000  1
