# generated using pymatgen
data_Mo
_symmetry_space_group_name_H-M   'P 1'
_cell_length_a   7.83555840
_cell_length_b   7.07535297
_cell_length_c   3.53841662
_cell_angle_alpha   90.00000000
_cell_angle_beta   90.00000000
_cell_angle_gamma   90.00000000
_symmetry_Int_Tables_number   1
_chemical_formula_structural   Mo
_chemical_formula_sum   Mo16
_cell_volume   196.16748713
_cell_formula_units_Z   16
loop_
 _symmetry_equiv_pos_site_id
 _symmetry_equiv_pos_as_xyz
  1  'x, y, z'
loop_
 _atom_site_type_symbol
 _atom_site_label
 _atom_site_symmetry_multiplicity
 _atom_site_fract_x
 _atom_site_fract_y
 _atom_site_fract_z
 _atom_site_occupancy
  Mo  Mo0  1  0.12503800  7.59284000  3.77687000  1
  Mo  Mo1  1  2.08943000  2.27807000  0.26154100  1
  Mo  Mo2  1  2.08818000  0.50705900  2.02074000  1
  Mo  Mo3  1  0.12519600  2.28721000  2.02676000  1
  Mo  Mo4  1  4.03806000  7.59515000  3.78366000  1
  Mo  Mo5  1  5.99679000  2.27769000  0.26841300  1
  Mo  Mo6  1  5.99722000  0.50783800  2.02352000  1
  Mo  Mo7  1  4.04467000  2.28111000  2.03747000  1
  Mo  Mo8  1  7.97442000  4.05378000  0.25540000  1
  Mo  Mo9  1  2.09340000  5.81320000  0.25337100  1
  Mo  Mo10  1  2.10746000  4.04770000  2.02703000  1
  Mo  Mo11  1  0.13860200  5.82046000  2.02216000  1
  Mo  Mo12  1  4.05106000  4.05375000  0.26177800  1
  Mo  Mo13  1  6.01056000  5.81145000  3.79178000  1
  Mo  Mo14  1  6.02996000  4.04669000  2.02870000  1
  Mo  Mo15  1  4.05438000  5.82599000  2.02239000  1
