# generated using pymatgen
data_Mo
_symmetry_space_group_name_H-M   'P 1'
_cell_length_a   8.58665462
_cell_length_b   6.84682709
_cell_length_c   3.42925096
_cell_angle_alpha   90.00000000
_cell_angle_beta   90.00000000
_cell_angle_gamma   90.00000000
_symmetry_Int_Tables_number   1
_chemical_formula_structural   Mo
_chemical_formula_sum   Mo16
_cell_volume   201.61025699
_cell_formula_units_Z   16
loop_
 _symmetry_equiv_pos_site_id
 _symmetry_equiv_pos_as_xyz
  1  'x, y, z'
loop_
 _atom_site_type_symbol
 _atom_site_label
 _atom_site_symmetry_multiplicity
 _atom_site_fract_x
 _atom_site_fract_y
 _atom_site_fract_z
 _atom_site_occupancy
  Mo  Mo0  1  1.89603000  2.33339000  0.31097400  1
  Mo  Mo1  1  1.88966000  0.62263300  2.02397000  1
  Mo  Mo2  1  -0.24678200  2.34715000  2.02858000  1
  Mo  Mo3  1  4.05224000  7.48055000  3.73823000  1
  Mo  Mo4  1  4.04663000  2.34672000  2.02456000  1
  Mo  Mo5  1  -0.23628400  4.05679000  3.72718000  1
  Mo  Mo6  1  1.90627000  5.75808000  0.31883900  1
  Mo  Mo7  1  1.90287000  4.04184000  2.02316000  1
  Mo  Mo8  1  -0.23211200  5.76697000  2.03493000  1
  Mo  Mo9  1  4.06358000  4.05056000  0.29900500  1
  Mo  Mo10  1  4.05212000  5.76522000  2.02684000  1
  Mo  Mo11  1  8.33118000  7.47157000  3.73763000  1
  Mo  Mo12  1  6.20021000  2.33102000  0.31044000  1
  Mo  Mo13  1  6.17176000  0.62691900  2.02643000  1
  Mo  Mo14  1  6.20635000  5.75054000  0.31543000  1
  Mo  Mo15  1  6.20963000  4.05006000  2.02455000  1
