# generated using pymatgen
data_Mo
_symmetry_space_group_name_H-M   'P 1'
_cell_length_a   7.34938395
_cell_length_b   7.24912879
_cell_length_c   3.62425351
_cell_angle_alpha   90.00000000
_cell_angle_beta   90.00000000
_cell_angle_gamma   90.00000000
_symmetry_Int_Tables_number   1
_chemical_formula_structural   Mo
_chemical_formula_sum   Mo16
_cell_volume   193.08801616
_cell_formula_units_Z   16
loop_
 _symmetry_equiv_pos_site_id
 _symmetry_equiv_pos_as_xyz
  1  'x, y, z'
loop_
 _atom_site_type_symbol
 _atom_site_label
 _atom_site_symmetry_multiplicity
 _atom_site_fract_x
 _atom_site_fract_y
 _atom_site_fract_z
 _atom_site_occupancy
  Mo  Mo0  1  0.38312700  7.67854000  3.82972000  1
  Mo  Mo1  1  2.21117000  2.24359000  0.21443400  1
  Mo  Mo2  1  2.20611000  0.41700500  2.03427000  1
  Mo  Mo3  1  0.37553000  2.24618000  2.02773000  1
  Mo  Mo4  1  4.05524000  7.67971000  3.83309000  1
  Mo  Mo5  1  5.88508000  2.23305000  0.20781700  1
  Mo  Mo6  1  5.89055000  0.42732700  2.03571000  1
  Mo  Mo7  1  4.05666000  2.23361000  2.01734000  1
  Mo  Mo8  1  7.71658000  4.05166000  0.21793800  1
  Mo  Mo9  1  2.20176000  5.85875000  0.20512000  1
  Mo  Mo10  1  2.21154000  4.04765000  2.02814000  1
  Mo  Mo11  1  0.37345800  5.85839000  2.02008000  1
  Mo  Mo12  1  4.04563000  4.05247000  0.22138500  1
  Mo  Mo13  1  5.88562000  5.85487000  3.83066000  1
  Mo  Mo14  1  5.89475000  4.05015000  2.03068000  1
  Mo  Mo15  1  4.05782000  5.86705000  2.02164000  1
