# generated using pymatgen
data_Mo
_symmetry_space_group_name_H-M   'P 1'
_cell_length_a   7.28097019
_cell_length_b   7.27674815
_cell_length_c   3.63825059
_cell_angle_alpha   90.00000000
_cell_angle_beta   90.00000000
_cell_angle_gamma   90.00000000
_symmetry_Int_Tables_number   1
_chemical_formula_structural   Mo
_chemical_formula_sum   Mo16
_cell_volume   192.76101536
_cell_formula_units_Z   16
loop_
 _symmetry_equiv_pos_site_id
 _symmetry_equiv_pos_as_xyz
  1  'x, y, z'
loop_
 _atom_site_type_symbol
 _atom_site_label
 _atom_site_symmetry_multiplicity
 _atom_site_fract_x
 _atom_site_fract_y
 _atom_site_fract_z
 _atom_site_occupancy
  Mo  Mo0  1  0.42028600  7.67667000  3.83216000  1
  Mo  Mo1  1  2.24068000  2.23737000  0.22121200  1
  Mo  Mo2  1  2.24048000  0.41476100  2.01229000  1
  Mo  Mo3  1  0.40739900  2.22708000  2.04035000  1
  Mo  Mo4  1  4.06564000  7.68644000  3.82739000  1
  Mo  Mo5  1  5.88362000  2.23559000  0.21975100  1
  Mo  Mo6  1  5.86563000  0.41910100  2.01137000  1
  Mo  Mo7  1  4.05414000  2.22752000  2.03446000  1
  Mo  Mo8  1  7.67789000  4.04630000  0.21592200  1
  Mo  Mo9  1  2.23133000  5.87862000  0.21169500  1
  Mo  Mo10  1  2.21389000  4.05213000  2.01657000  1
  Mo  Mo11  1  0.40488100  5.86874000  2.03676000  1
  Mo  Mo12  1  4.03297000  4.03727000  0.21107200  1
  Mo  Mo13  1  5.86865000  5.86733000  3.83926000  1
  Mo  Mo14  1  5.87140000  4.06236000  2.01441000  1
  Mo  Mo15  1  4.04015000  5.86272000  2.01709000  1
