# generated using pymatgen
data_Mo
_symmetry_space_group_name_H-M   'P 1'
_cell_length_a   8.18199399
_cell_length_b   6.97021794
_cell_length_c   3.48523998
_cell_angle_alpha   90.00000000
_cell_angle_beta   90.00000000
_cell_angle_gamma   90.00000000
_symmetry_Int_Tables_number   1
_chemical_formula_structural   Mo
_chemical_formula_sum   Mo16
_cell_volume   198.76421661
_cell_formula_units_Z   16
loop_
 _symmetry_equiv_pos_site_id
 _symmetry_equiv_pos_as_xyz
  1  'x, y, z'
loop_
 _atom_site_type_symbol
 _atom_site_label
 _atom_site_symmetry_multiplicity
 _atom_site_fract_x
 _atom_site_fract_y
 _atom_site_fract_z
 _atom_site_occupancy
  Mo  Mo0  1  -0.04464980  7.53668000  3.76850000  1
  Mo  Mo1  1  2.00876000  2.31189000  0.28441300  1
  Mo  Mo2  1  1.99814000  0.56572500  2.02446000  1
  Mo  Mo3  1  -0.03559940  2.31324000  2.03447000  1
  Mo  Mo4  1  4.04527000  7.52935000  3.76516000  1
  Mo  Mo5  1  6.09427000  2.30476000  0.27874000  1
  Mo  Mo6  1  6.09092000  0.57139500  2.02170000  1
  Mo  Mo7  1  4.03911000  2.30750000  2.02259000  1
  Mo  Mo8  1  8.14465000  4.04622000  0.27308200  1
  Mo  Mo9  1  2.01175000  5.79031000  0.29058500  1
  Mo  Mo10  1  2.01384000  4.05126000  2.01668000  1
  Mo  Mo11  1  -0.03605710  5.78653000  2.03817000  1
  Mo  Mo12  1  4.05924000  4.05484000  0.27022400  1
  Mo  Mo13  1  6.10025000  5.79092000  3.77603000  1
  Mo  Mo14  1  6.08117000  4.05135000  2.01475000  1
  Mo  Mo15  1  4.04693000  5.78803000  2.03521000  1
