# generated using pymatgen
data_Mo
_symmetry_space_group_name_H-M   'P 1'
_cell_length_a   7.97966415
_cell_length_b   7.03127980
_cell_length_c   3.51563525
_cell_angle_alpha   90.00000000
_cell_angle_beta   90.00000000
_cell_angle_gamma   90.00000000
_symmetry_Int_Tables_number   1
_chemical_formula_structural   Mo
_chemical_formula_sum   Mo16
_cell_volume   197.25263072
_cell_formula_units_Z   16
loop_
 _symmetry_equiv_pos_site_id
 _symmetry_equiv_pos_as_xyz
  1  'x, y, z'
loop_
 _atom_site_type_symbol
 _atom_site_label
 _atom_site_symmetry_multiplicity
 _atom_site_fract_x
 _atom_site_fract_y
 _atom_site_fract_z
 _atom_site_occupancy
  Mo  Mo0  1  0.06453490  7.56553000  3.77890000  1
  Mo  Mo1  1  2.05667000  2.28049000  0.27363400  1
  Mo  Mo2  1  2.04414000  0.53672500  2.01234000  1
  Mo  Mo3  1  0.05743110  2.29201000  2.02758000  1
  Mo  Mo4  1  4.04515000  7.56556000  3.78469000  1
  Mo  Mo5  1  6.04628000  2.28536000  0.27458500  1
  Mo  Mo6  1  6.03993000  0.53000100  2.01462000  1
  Mo  Mo7  1  4.05244000  2.30260000  2.03356000  1
  Mo  Mo8  1  8.04360000  4.05202000  0.25509100  1
  Mo  Mo9  1  2.06423000  5.80592000  0.27106600  1
  Mo  Mo10  1  2.05891000  4.04816000  2.02045000  1
  Mo  Mo11  1  0.05979190  5.81744000  2.02003000  1
  Mo  Mo12  1  4.04367000  4.05118000  0.26058900  1
  Mo  Mo13  1  6.04099000  5.80974000  3.79570000  1
  Mo  Mo14  1  6.04581000  4.04502000  2.02379000  1
  Mo  Mo15  1  4.05675000  5.81223000  2.03774000  1
