# generated using pymatgen
data_Mo
_symmetry_space_group_name_H-M   'P 1'
_cell_length_a   7.88941613
_cell_length_b   7.05933034
_cell_length_c   3.52951264
_cell_angle_alpha   90.00000000
_cell_angle_beta   90.00000000
_cell_angle_gamma   90.00000000
_symmetry_Int_Tables_number   1
_chemical_formula_structural   Mo
_chemical_formula_sum   Mo16
_cell_volume   196.57265838
_cell_formula_units_Z   16
loop_
 _symmetry_equiv_pos_site_id
 _symmetry_equiv_pos_as_xyz
  1  'x, y, z'
loop_
 _atom_site_type_symbol
 _atom_site_label
 _atom_site_symmetry_multiplicity
 _atom_site_fract_x
 _atom_site_fract_y
 _atom_site_fract_z
 _atom_site_occupancy
  Mo  Mo0  1  0.10751700  7.57892000  3.80046000  1
  Mo  Mo1  1  2.07491000  2.28402000  0.25214300  1
  Mo  Mo2  1  2.09805000  0.52329600  2.03449000  1
  Mo  Mo3  1  0.11036900  2.27822000  2.02143000  1
  Mo  Mo4  1  4.05465000  7.58212000  3.79266000  1
  Mo  Mo5  1  6.02511000  2.28807000  0.25019200  1
  Mo  Mo6  1  6.03650000  0.51958700  2.03223000  1
  Mo  Mo7  1  4.05434000  2.29213000  2.01716000  1
  Mo  Mo8  1  7.98987000  4.05464000  0.25813400  1
  Mo  Mo9  1  2.07641000  5.81913000  0.26447500  1
  Mo  Mo10  1  2.07263000  4.04573000  2.02926000  1
  Mo  Mo11  1  0.10274000  5.81641000  2.03397000  1
  Mo  Mo12  1  4.03965000  4.04916000  0.25037800  1
  Mo  Mo13  1  6.00883000  5.81430000  3.78612000  1
  Mo  Mo14  1  6.01700000  4.05267000  2.02620000  1
  Mo  Mo15  1  4.04199000  5.80161000  2.02119000  1
