# generated using pymatgen
data_Mo
_symmetry_space_group_name_H-M   'P 1'
_cell_length_a   7.59538233
_cell_length_b   7.15636945
_cell_length_c   3.57804585
_cell_angle_alpha   90.00000000
_cell_angle_beta   90.00000000
_cell_angle_gamma   90.00000000
_symmetry_Int_Tables_number   1
_chemical_formula_structural   Mo
_chemical_formula_sum   Mo16
_cell_volume   194.48597741
_cell_formula_units_Z   16
loop_
 _symmetry_equiv_pos_site_id
 _symmetry_equiv_pos_as_xyz
  1  'x, y, z'
loop_
 _atom_site_type_symbol
 _atom_site_label
 _atom_site_symmetry_multiplicity
 _atom_site_fract_x
 _atom_site_fract_y
 _atom_site_fract_z
 _atom_site_occupancy
  Mo  Mo0  1  0.25732000  7.62468000  3.80464000  1
  Mo  Mo1  1  2.15535000  2.26503000  0.24062900  1
  Mo  Mo2  1  2.14433000  0.47316400  2.02282000  1
  Mo  Mo3  1  0.26230800  2.26158000  2.03165000  1
  Mo  Mo4  1  4.05660000  7.61905000  3.80893000  1
  Mo  Mo5  1  5.95135000  2.25495000  0.23886200  1
  Mo  Mo6  1  5.94717000  0.48237200  2.02459000  1
  Mo  Mo7  1  4.04430000  2.25742000  2.02825000  1
  Mo  Mo8  1  7.83564000  4.04101000  0.22658900  1
  Mo  Mo9  1  2.14965000  5.84297000  0.24797400  1
  Mo  Mo10  1  2.16144000  4.05202000  2.00457000  1
  Mo  Mo11  1  0.25701500  5.83816000  2.04237000  1
  Mo  Mo12  1  4.04719000  4.05060000  0.23059900  1
  Mo  Mo13  1  5.94878000  5.84096000  3.82421000  1
  Mo  Mo14  1  5.93744000  4.05614000  2.00635000  1
  Mo  Mo15  1  4.04874000  5.83990000  2.03893000  1
