# generated using pymatgen
data_Mo
_symmetry_space_group_name_H-M   'P 1'
_cell_length_a   8.09611330
_cell_length_b   6.99644107
_cell_length_c   3.49787736
_cell_angle_alpha   90.00000000
_cell_angle_beta   90.00000000
_cell_angle_gamma   90.00000000
_symmetry_Int_Tables_number   1
_chemical_formula_structural   Mo
_chemical_formula_sum   Mo16
_cell_volume   198.13369364
_cell_formula_units_Z   16
loop_
 _symmetry_equiv_pos_site_id
 _symmetry_equiv_pos_as_xyz
  1  'x, y, z'
loop_
 _atom_site_type_symbol
 _atom_site_label
 _atom_site_symmetry_multiplicity
 _atom_site_fract_x
 _atom_site_fract_y
 _atom_site_fract_z
 _atom_site_occupancy
  Mo  Mo0  1  -0.01290120  7.53844000  3.77695000  1
  Mo  Mo1  1  2.02334000  2.30763000  0.26420400  1
  Mo  Mo2  1  2.01793000  0.55632600  2.02997000  1
  Mo  Mo3  1  -0.00266150  2.29431000  2.01142000  1
  Mo  Mo4  1  4.04455000  7.54523000  3.78693000  1
  Mo  Mo5  1  6.08300000  2.30676000  0.27221000  1
  Mo  Mo6  1  6.06411000  0.55634800  2.03438000  1
  Mo  Mo7  1  4.04402000  2.30004000  2.02408000  1
  Mo  Mo8  1  8.10264000  4.04814000  0.28134300  1
  Mo  Mo9  1  2.03589000  5.80949000  0.26845200  1
  Mo  Mo10  1  2.02588000  4.05098000  2.02760000  1
  Mo  Mo11  1  0.00512289  5.79389000  2.01842000  1
  Mo  Mo12  1  4.06087000  4.04540000  0.29069600  1
  Mo  Mo13  1  6.08562000  5.80540000  3.76626000  1
  Mo  Mo14  1  6.07747000  4.05416000  2.03060000  1
  Mo  Mo15  1  4.04902000  5.78745000  2.01862000  1
