# generated using pymatgen
data_Mo
_symmetry_space_group_name_H-M   'P 1'
_cell_length_a   8.07864588
_cell_length_b   7.00147200
_cell_length_c   3.50062203
_cell_angle_alpha   90.00000000
_cell_angle_beta   90.00000000
_cell_angle_gamma   90.00000000
_symmetry_Int_Tables_number   1
_chemical_formula_structural   Mo
_chemical_formula_sum   Mo16
_cell_volume   198.00362883
_cell_formula_units_Z   16
loop_
 _symmetry_equiv_pos_site_id
 _symmetry_equiv_pos_as_xyz
  1  'x, y, z'
loop_
 _atom_site_type_symbol
 _atom_site_label
 _atom_site_symmetry_multiplicity
 _atom_site_fract_x
 _atom_site_fract_y
 _atom_site_fract_z
 _atom_site_occupancy
  Mo  Mo0  1  0.01555650  7.54883000  3.76586000  1
  Mo  Mo1  1  2.03812000  2.30474000  0.28519900  1
  Mo  Mo2  1  2.05515000  0.54680200  2.02258000  1
  Mo  Mo3  1  0.01668880  2.30630000  2.04038000  1
  Mo  Mo4  1  4.05113000  7.54921000  3.76259000  1
  Mo  Mo5  1  6.06376000  2.29872000  0.27703800  1
  Mo  Mo6  1  6.08184000  0.55538400  2.02095000  1
  Mo  Mo7  1  4.04960000  2.29670000  2.02508000  1
  Mo  Mo8  1  8.08581000  4.04488000  0.27674500  1
  Mo  Mo9  1  2.02552000  5.79954000  0.27798900  1
  Mo  Mo10  1  2.02600000  4.05123000  2.01645000  1
  Mo  Mo11  1  0.00739811  5.79795000  2.03503000  1
  Mo  Mo12  1  4.04307000  4.04618000  0.27354800  1
  Mo  Mo13  1  6.06299000  5.79419000  3.77602000  1
  Mo  Mo14  1  6.06035000  4.05600000  2.01548000  1
  Mo  Mo15  1  4.03837000  5.80335000  2.02845000  1
