# generated using pymatgen
data_Mo
_symmetry_space_group_name_H-M   'P 1'
_cell_length_a   8.38286836
_cell_length_b   6.90667933
_cell_length_c   3.45665765
_cell_angle_alpha   90.00000000
_cell_angle_beta   90.00000000
_cell_angle_gamma   90.00000000
_symmetry_Int_Tables_number   1
_chemical_formula_structural   Mo
_chemical_formula_sum   Mo16
_cell_volume   200.13281676
_cell_formula_units_Z   16
loop_
 _symmetry_equiv_pos_site_id
 _symmetry_equiv_pos_as_xyz
  1  'x, y, z'
loop_
 _atom_site_type_symbol
 _atom_site_label
 _atom_site_symmetry_multiplicity
 _atom_site_fract_x
 _atom_site_fract_y
 _atom_site_fract_z
 _atom_site_occupancy
  Mo  Mo0  1  1.94338000  2.31470000  0.30302300  1
  Mo  Mo1  1  1.95984000  0.59897100  2.02484000  1
  Mo  Mo2  1  -0.14279300  2.31773000  2.02575000  1
  Mo  Mo3  1  4.04756000  7.50374000  3.74621000  1
  Mo  Mo4  1  4.05839000  2.33231000  2.02268000  1
  Mo  Mo5  1  -0.13300900  4.05418000  3.76331000  1
  Mo  Mo6  1  1.95215000  5.77712000  0.29611000  1
  Mo  Mo7  1  1.94872000  4.04674000  2.02759000  1
  Mo  Mo8  1  -0.14435200  5.78814000  2.01979000  1
  Mo  Mo9  1  4.05135000  4.04852000  0.29926900  1
  Mo  Mo10  1  4.05360000  5.77556000  2.01725000  1
  Mo  Mo11  1  8.24179000  7.50194000  3.75368000  1
  Mo  Mo12  1  6.14330000  2.32184000  0.30119000  1
  Mo  Mo13  1  6.15735000  0.59183300  2.02264000  1
  Mo  Mo14  1  6.13385000  5.77825000  0.29476000  1
  Mo  Mo15  1  6.14600000  4.04841000  2.02526000  1
