# generated using pymatgen
data_Mo
_symmetry_space_group_name_H-M   'P 1'
_cell_length_a   8.69000274
_cell_length_b   6.82295924
_cell_length_c   3.41481137
_cell_angle_alpha   90.00000000
_cell_angle_beta   90.00000000
_cell_angle_gamma   90.00000000
_symmetry_Int_Tables_number   1
_chemical_formula_structural   Mo
_chemical_formula_sum   Mo16
_cell_volume   202.46940640
_cell_formula_units_Z   16
loop_
 _symmetry_equiv_pos_site_id
 _symmetry_equiv_pos_as_xyz
  1  'x, y, z'
loop_
 _atom_site_type_symbol
 _atom_site_label
 _atom_site_symmetry_multiplicity
 _atom_site_fract_x
 _atom_site_fract_y
 _atom_site_fract_z
 _atom_site_occupancy
  Mo  Mo0  1  1.88029000  2.35312000  0.30870200  1
  Mo  Mo1  1  1.88461000  0.63681400  2.03307000  1
  Mo  Mo2  1  -0.28510100  2.34280000  2.01684000  1
  Mo  Mo3  1  4.04917000  7.46275000  3.73785000  1
  Mo  Mo4  1  4.04432000  2.34078000  2.02724000  1
  Mo  Mo5  1  -0.29087600  4.04760000  3.73812000  1
  Mo  Mo6  1  1.88130000  5.75961000  0.30540700  1
  Mo  Mo7  1  1.87594000  4.05042000  2.03072000  1
  Mo  Mo8  1  -0.28721700  5.74853000  2.01812000  1
  Mo  Mo9  1  4.05836000  4.05152000  0.33628600  1
  Mo  Mo10  1  4.04294000  5.75021000  2.01946000  1
  Mo  Mo11  1  8.38947000  7.46016000  3.72502000  1
  Mo  Mo12  1  6.21812000  2.34631000  0.31367600  1
  Mo  Mo13  1  6.21691000  0.64170200  2.03723000  1
  Mo  Mo14  1  6.22664000  5.75351000  0.30372200  1
  Mo  Mo15  1  6.20513000  4.05417000  2.03372000  1
