# generated using pymatgen
data_Mo
_symmetry_space_group_name_H-M   'P 1'
_cell_length_a   7.78461207
_cell_length_b   7.09186977
_cell_length_c   3.54646683
_cell_angle_alpha   90.00000000
_cell_angle_beta   90.00000000
_cell_angle_gamma   90.00000000
_symmetry_Int_Tables_number   1
_chemical_formula_structural   Mo
_chemical_formula_sum   Mo16
_cell_volume   195.79140797
_cell_formula_units_Z   16
loop_
 _symmetry_equiv_pos_site_id
 _symmetry_equiv_pos_as_xyz
  1  'x, y, z'
loop_
 _atom_site_type_symbol
 _atom_site_label
 _atom_site_symmetry_multiplicity
 _atom_site_fract_x
 _atom_site_fract_y
 _atom_site_fract_z
 _atom_site_occupancy
  Mo  Mo0  1  0.16948600  7.60440000  3.80699000  1
  Mo  Mo1  1  2.11645000  2.27018000  0.25018200  1
  Mo  Mo2  1  2.10693000  0.49979400  2.02360000  1
  Mo  Mo3  1  0.16158200  2.28258000  2.01569000  1
  Mo  Mo4  1  4.04458000  7.59599000  3.80470000  1
  Mo  Mo5  1  5.99012000  2.27273000  0.25383200  1
  Mo  Mo6  1  6.00427000  0.49735400  2.02276000  1
  Mo  Mo7  1  4.05349000  2.27710000  2.02300000  1
  Mo  Mo8  1  7.94042000  4.05122000  0.24253600  1
  Mo  Mo9  1  2.10527000  5.81591000  0.26177300  1
  Mo  Mo10  1  2.10546000  4.04812000  2.02376000  1
  Mo  Mo11  1  0.15312500  5.82600000  2.02453000  1
  Mo  Mo12  1  4.03722000  4.05761000  0.24030500  1
  Mo  Mo13  1  5.99062000  5.82632000  3.80944000  1
  Mo  Mo14  1  5.98498000  4.03867000  2.02234000  1
  Mo  Mo15  1  4.05136000  5.83601000  2.02809000  1
