# generated using pymatgen
data_Mo
_symmetry_space_group_name_H-M   'P 1'
_cell_length_a   8.25768550
_cell_length_b   6.94705027
_cell_length_c   3.47405148
_cell_angle_alpha   90.00000000
_cell_angle_beta   90.00000000
_cell_angle_gamma   90.00000000
_symmetry_Int_Tables_number   1
_chemical_formula_structural   Mo
_chemical_formula_sum   Mo16
_cell_volume   199.29436971
_cell_formula_units_Z   16
loop_
 _symmetry_equiv_pos_site_id
 _symmetry_equiv_pos_as_xyz
  1  'x, y, z'
loop_
 _atom_site_type_symbol
 _atom_site_label
 _atom_site_symmetry_multiplicity
 _atom_site_fract_x
 _atom_site_fract_y
 _atom_site_fract_z
 _atom_site_occupancy
  Mo  Mo0  1  1.99772000  2.32154000  0.28445700  1
  Mo  Mo1  1  1.98633000  0.57993700  2.03133000  1
  Mo  Mo2  1  -0.07473530  2.31171000  2.02841000  1
  Mo  Mo3  1  4.05002000  7.51876000  3.75819000  1
  Mo  Mo4  1  4.04299000  2.29833000  2.02277000  1
  Mo  Mo5  1  -0.08642270  4.04556000  3.77305000  1
  Mo  Mo6  1  1.98677000  5.78528000  0.27908700  1
  Mo  Mo7  1  1.98966000  4.06097000  2.02912000  1
  Mo  Mo8  1  -0.07615800  5.77168000  2.02376000  1
  Mo  Mo9  1  4.04724000  4.04710000  0.29024100  1
  Mo  Mo10  1  4.04501000  5.78695000  2.02474000  1
  Mo  Mo11  1  8.17998000  7.52516000  3.76721000  1
  Mo  Mo12  1  6.11475000  2.32229000  0.28098000  1
  Mo  Mo13  1  6.10756000  0.57954900  2.02719000  1
  Mo  Mo14  1  6.12270000  5.79417000  0.27974000  1
  Mo  Mo15  1  6.10888000  4.05102000  2.02567000  1
