# generated using pymatgen
data_Mo
_symmetry_space_group_name_H-M   'P 1'
_cell_length_a   7.46001077
_cell_length_b   7.20249230
_cell_length_c   3.60441470
_cell_angle_alpha   90.00000000
_cell_angle_beta   90.00000000
_cell_angle_gamma   90.00000000
_symmetry_Int_Tables_number   1
_chemical_formula_structural   Mo
_chemical_formula_sum   Mo16
_cell_volume   193.66761716
_cell_formula_units_Z   16
loop_
 _symmetry_equiv_pos_site_id
 _symmetry_equiv_pos_as_xyz
  1  'x, y, z'
loop_
 _atom_site_type_symbol
 _atom_site_label
 _atom_site_symmetry_multiplicity
 _atom_site_fract_x
 _atom_site_fract_y
 _atom_site_fract_z
 _atom_site_occupancy
  Mo  Mo0  1  0.31995900  7.64742000  3.81525000  1
  Mo  Mo1  1  2.18155000  2.26287000  0.22846600  1
  Mo  Mo2  1  2.16225000  0.45224800  2.02194000  1
  Mo  Mo3  1  0.31882500  2.24901000  2.03274000  1
  Mo  Mo4  1  4.05038000  7.63956000  3.82300000  1
  Mo  Mo5  1  5.91579000  2.25228000  0.22545400  1
  Mo  Mo6  1  5.91430000  0.46044400  2.02509000  1
  Mo  Mo7  1  4.05126000  2.24456000  2.02848000  1
  Mo  Mo8  1  7.77651000  4.03657000  0.21798400  1
  Mo  Mo9  1  2.18020000  5.85284000  0.22486200  1
  Mo  Mo10  1  2.19295000  4.05644000  2.01189000  1
  Mo  Mo11  1  0.32053300  5.84337000  2.03070000  1
  Mo  Mo12  1  4.05406000  4.04795000  0.22566200  1
  Mo  Mo13  1  5.92182000  5.84977000  3.83248000  1
  Mo  Mo14  1  5.91768000  4.05968000  2.01584000  1
  Mo  Mo15  1  4.06192000  5.84499000  2.03574000  1
