# generated using pymatgen
data_Mo
_symmetry_space_group_name_H-M   'P 1'
_cell_length_a   7.47747821
_cell_length_b   7.19746912
_cell_length_c   3.60026670
_cell_angle_alpha   90.00000000
_cell_angle_beta   90.00000000
_cell_angle_gamma   90.00000000
_symmetry_Int_Tables_number   1
_chemical_formula_structural   Mo
_chemical_formula_sum   Mo16
_cell_volume   193.76245965
_cell_formula_units_Z   16
loop_
 _symmetry_equiv_pos_site_id
 _symmetry_equiv_pos_as_xyz
  1  'x, y, z'
loop_
 _atom_site_type_symbol
 _atom_site_label
 _atom_site_symmetry_multiplicity
 _atom_site_fract_x
 _atom_site_fract_y
 _atom_site_fract_z
 _atom_site_occupancy
  Mo  Mo0  1  0.31980800  7.65424000  3.83602000  1
  Mo  Mo1  1  2.17895000  2.24057000  0.21857400  1
  Mo  Mo2  1  2.19820000  0.44645300  2.03354000  1
  Mo  Mo3  1  0.31617200  2.24615000  2.01406000  1
  Mo  Mo4  1  4.05614000  7.65797000  3.82893000  1
  Mo  Mo5  1  5.91566000  2.24803000  0.22180500  1
  Mo  Mo6  1  5.92371000  0.43987600  2.03017000  1
  Mo  Mo7  1  4.05367000  2.25854000  2.01625000  1
  Mo  Mo8  1  7.78961000  4.05929000  0.23729100  1
  Mo  Mo9  1  2.18003000  5.85062000  0.22024600  1
  Mo  Mo10  1  2.17812000  4.04035000  2.04031000  1
  Mo  Mo11  1  0.31255100  5.86171000  2.01683000  1
  Mo  Mo12  1  4.03968000  4.05452000  0.23024700  1
  Mo  Mo13  1  5.90158000  5.84859000  3.81450000  1
  Mo  Mo14  1  5.91515000  4.04424000  2.03574000  1
  Mo  Mo15  1  4.04349000  5.84885000  2.00523000  1
