# generated using pymatgen
data_Mo
_symmetry_space_group_name_H-M   'P 1'
_cell_length_a   8.67107984
_cell_length_b   6.82920200
_cell_length_c   3.41623998
_cell_angle_alpha   90.00000000
_cell_angle_beta   90.00000000
_cell_angle_gamma   90.00000000
_symmetry_Int_Tables_number   1
_chemical_formula_structural   Mo
_chemical_formula_sum   Mo16
_cell_volume   202.29796516
_cell_formula_units_Z   16
loop_
 _symmetry_equiv_pos_site_id
 _symmetry_equiv_pos_as_xyz
  1  'x, y, z'
loop_
 _atom_site_type_symbol
 _atom_site_label
 _atom_site_symmetry_multiplicity
 _atom_site_fract_x
 _atom_site_fract_y
 _atom_site_fract_z
 _atom_site_occupancy
  Mo  Mo0  1  1.87768000  2.34524000  0.31033500  1
  Mo  Mo1  1  1.87959000  0.63385400  2.03748000  1
  Mo  Mo2  1  -0.29566200  2.34291000  2.02642000  1
  Mo  Mo3  1  4.03773000  7.46841000  3.73580000  1
  Mo  Mo4  1  4.05287000  2.33539000  2.01033000  1
  Mo  Mo5  1  -0.27857100  4.05226000  3.73384000  1
  Mo  Mo6  1  1.88236000  5.75744000  0.31553100  1
  Mo  Mo7  1  1.89105000  4.04971000  2.02155000  1
  Mo  Mo8  1  -0.29225200  5.75490000  2.03215000  1
  Mo  Mo9  1  4.04992000  4.04779000  0.31387900  1
  Mo  Mo10  1  4.05554000  5.75855000  2.02725000  1
  Mo  Mo11  1  8.38020000  7.46344000  3.73928000  1
  Mo  Mo12  1  6.21316000  2.34114000  0.30338700  1
  Mo  Mo13  1  6.21908000  0.64130700  2.03790000  1
  Mo  Mo14  1  6.21631000  5.75270000  0.31619900  1
  Mo  Mo15  1  6.23990000  4.05496000  2.02242000  1
