# generated using pymatgen
data_Mo
_symmetry_space_group_name_H-M   'P 1'
_cell_length_a   7.95200755
_cell_length_b   7.03960365
_cell_length_c   3.51996183
_cell_angle_alpha   90.00000000
_cell_angle_beta   90.00000000
_cell_angle_gamma   90.00000000
_symmetry_Int_Tables_number   1
_chemical_formula_structural   Mo
_chemical_formula_sum   Mo16
_cell_volume   197.04387807
_cell_formula_units_Z   16
loop_
 _symmetry_equiv_pos_site_id
 _symmetry_equiv_pos_as_xyz
  1  'x, y, z'
loop_
 _atom_site_type_symbol
 _atom_site_label
 _atom_site_symmetry_multiplicity
 _atom_site_fract_x
 _atom_site_fract_y
 _atom_site_fract_z
 _atom_site_occupancy
  Mo  Mo0  1  0.06776860  7.57158000  3.78553000  1
  Mo  Mo1  1  2.06616000  2.28958000  0.26333800  1
  Mo  Mo2  1  2.05070000  0.52819800  2.02940000  1
  Mo  Mo3  1  0.07089610  2.29481000  2.02641000  1
  Mo  Mo4  1  4.02867000  7.56582000  3.78924000  1
  Mo  Mo5  1  6.02641000  2.28003000  0.25735100  1
  Mo  Mo6  1  6.03277000  0.53677900  2.03141000  1
  Mo  Mo7  1  4.04858000  2.28324000  2.01778000  1
  Mo  Mo8  1  8.04234000  4.04600000  0.25824200  1
  Mo  Mo9  1  2.07077000  5.81314000  0.26871900  1
  Mo  Mo10  1  2.06777000  4.05089000  2.01444000  1
  Mo  Mo11  1  0.07549010  5.80704000  2.03143000  1
  Mo  Mo12  1  4.05875000  4.05293000  0.26210700  1
  Mo  Mo13  1  6.04451000  5.81179000  3.79113000  1
  Mo  Mo14  1  6.03674000  4.05148000  2.01781000  1
  Mo  Mo15  1  4.05967000  5.81669000  2.03569000  1
