# generated using pymatgen
data_Mo
_symmetry_space_group_name_H-M   'P 1'
_cell_length_a   8.63905594
_cell_length_b   6.83635652
_cell_length_c   3.42063260
_cell_angle_alpha   90.00000000
_cell_angle_beta   90.00000000
_cell_angle_gamma   90.00000000
_symmetry_Int_Tables_number   1
_chemical_formula_structural   Mo
_chemical_formula_sum   Mo16
_cell_volume   202.02142025
_cell_formula_units_Z   16
loop_
 _symmetry_equiv_pos_site_id
 _symmetry_equiv_pos_as_xyz
  1  'x, y, z'
loop_
 _atom_site_type_symbol
 _atom_site_label
 _atom_site_symmetry_multiplicity
 _atom_site_fract_x
 _atom_site_fract_y
 _atom_site_fract_z
 _atom_site_occupancy
  Mo  Mo0  1  1.88581000  2.34330000  0.31101400  1
  Mo  Mo1  1  1.88938000  0.62999500  2.02824000  1
  Mo  Mo2  1  -0.27103200  2.34695000  2.01299000  1
  Mo  Mo3  1  4.04062000  7.47022000  3.73972000  1
  Mo  Mo4  1  4.05179000  2.33875000  2.02552000  1
  Mo  Mo5  1  -0.25977100  4.04972000  3.73142000  1
  Mo  Mo6  1  1.88450000  5.75124000  0.32107400  1
  Mo  Mo7  1  1.89744000  4.05273000  2.01398000  1
  Mo  Mo8  1  -0.26930300  5.75255000  2.02563000  1
  Mo  Mo9  1  4.05376000  4.04998000  0.31477500  1
  Mo  Mo10  1  4.05821000  5.76656000  2.03420000  1
  Mo  Mo11  1  8.37055000  7.46884000  3.73666000  1
  Mo  Mo12  1  6.19448000  2.34651000  0.31681900  1
  Mo  Mo13  1  6.21334000  0.62797100  2.02926000  1
  Mo  Mo14  1  6.20437000  5.76128000  0.32409100  1
  Mo  Mo15  1  6.21680000  4.04341000  2.01396000  1
