# generated using pymatgen
data_Mo
_symmetry_space_group_name_H-M   'P 1'
_cell_length_a   7.40178621
_cell_length_b   7.22753173
_cell_length_c   3.61427855
_cell_angle_alpha   90.00000000
_cell_angle_beta   90.00000000
_cell_angle_gamma   90.00000000
_symmetry_Int_Tables_number   1
_chemical_formula_structural   Mo
_chemical_formula_sum   Mo16
_cell_volume   193.35177565
_cell_formula_units_Z   16
loop_
 _symmetry_equiv_pos_site_id
 _symmetry_equiv_pos_as_xyz
  1  'x, y, z'
loop_
 _atom_site_type_symbol
 _atom_site_label
 _atom_site_symmetry_multiplicity
 _atom_site_fract_x
 _atom_site_fract_y
 _atom_site_fract_z
 _atom_site_occupancy
  Mo  Mo0  1  0.34698900  7.66720000  3.83963000  1
  Mo  Mo1  1  2.19476000  2.24216000  0.21713900  1
  Mo  Mo2  1  2.20690000  0.43381400  2.02828000  1
  Mo  Mo3  1  0.35763100  2.25532000  2.02416000  1
  Mo  Mo4  1  4.05683000  7.66358000  3.83133000  1
  Mo  Mo5  1  5.90052000  2.24288000  0.21459100  1
  Mo  Mo6  1  5.91445000  0.43512400  2.02478000  1
  Mo  Mo7  1  4.05295000  2.24284000  2.01933000  1
  Mo  Mo8  1  7.73897000  4.05457000  0.22540800  1
  Mo  Mo9  1  2.18340000  5.84964000  0.21226200  1
  Mo  Mo10  1  2.19373000  4.04995000  2.03854000  1
  Mo  Mo11  1  0.34796500  5.84686000  2.01688000  1
  Mo  Mo12  1  4.05550000  4.05492000  0.21711700  1
  Mo  Mo13  1  5.90352000  5.85862000  3.82589000  1
  Mo  Mo14  1  5.89498000  4.04146000  2.03539000  1
  Mo  Mo15  1  4.04911000  5.86107000  2.01499000  1
