# generated using pymatgen
data_Mo
_symmetry_space_group_name_H-M   'P 1'
_cell_length_a   7.90397263
_cell_length_b   7.05534303
_cell_length_c   3.52701688
_cell_angle_alpha   90.00000000
_cell_angle_beta   90.00000000
_cell_angle_gamma   90.00000000
_symmetry_Int_Tables_number   1
_chemical_formula_structural   Mo
_chemical_formula_sum   Mo16
_cell_volume   196.68493631
_cell_formula_units_Z   16
loop_
 _symmetry_equiv_pos_site_id
 _symmetry_equiv_pos_as_xyz
  1  'x, y, z'
loop_
 _atom_site_type_symbol
 _atom_site_label
 _atom_site_symmetry_multiplicity
 _atom_site_fract_x
 _atom_site_fract_y
 _atom_site_fract_z
 _atom_site_occupancy
  Mo  Mo0  1  0.09224030  7.57865000  3.76604000  1
  Mo  Mo1  1  2.07839000  2.28611000  0.27454700  1
  Mo  Mo2  1  2.06867000  0.51462700  2.01461000  1
  Mo  Mo3  1  0.09326980  2.29575000  2.03393000  1
  Mo  Mo4  1  4.04533000  7.58104000  3.77804000  1
  Mo  Mo5  1  6.03049000  2.27765000  0.27560600  1
  Mo  Mo6  1  6.02441000  0.52344100  2.01944000  1
  Mo  Mo7  1  4.04685000  2.28354000  2.03681000  1
  Mo  Mo8  1  8.00207000  4.04905000  0.26000900  1
  Mo  Mo9  1  2.07613000  5.80848000  0.25962600  1
  Mo  Mo10  1  2.06967000  4.04881000  2.01747000  1
  Mo  Mo11  1  0.09392460  5.81669000  2.02170000  1
  Mo  Mo12  1  4.05741000  4.05222000  0.27164500  1
  Mo  Mo13  1  6.04016000  5.80652000  3.79126000  1
  Mo  Mo14  1  6.02676000  4.04938000  2.02277000  1
  Mo  Mo15  1  4.05026000  5.82806000  2.02948000  1
