# generated using pymatgen
data_Mo
_symmetry_space_group_name_H-M   'P 1'
_cell_length_a   7.57354853
_cell_length_b   7.16465798
_cell_length_c   3.58175206
_cell_angle_alpha   90.00000000
_cell_angle_beta   90.00000000
_cell_angle_gamma   90.00000000
_symmetry_Int_Tables_number   1
_chemical_formula_structural   Mo
_chemical_formula_sum   Mo16
_cell_volume   194.35261806
_cell_formula_units_Z   16
loop_
 _symmetry_equiv_pos_site_id
 _symmetry_equiv_pos_as_xyz
  1  'x, y, z'
loop_
 _atom_site_type_symbol
 _atom_site_label
 _atom_site_symmetry_multiplicity
 _atom_site_fract_x
 _atom_site_fract_y
 _atom_site_fract_z
 _atom_site_occupancy
  Mo  Mo0  1  0.26117300  7.63107000  3.80184000  1
  Mo  Mo1  1  2.15096000  2.25797000  0.24582100  1
  Mo  Mo2  1  2.13525000  0.46487000  2.01944000  1
  Mo  Mo3  1  0.25463900  2.26023000  2.03288000  1
  Mo  Mo4  1  4.05239000  7.63556000  3.80986000  1
  Mo  Mo5  1  5.95095000  2.25531000  0.24139500  1
  Mo  Mo6  1  5.92978000  0.46538600  2.02277000  1
  Mo  Mo7  1  4.05361000  2.27413000  2.02631000  1
  Mo  Mo8  1  7.84332000  4.05290000  0.23223200  1
  Mo  Mo9  1  2.16441000  5.84277000  0.23662100  1
  Mo  Mo10  1  2.15377000  4.04080000  2.01261000  1
  Mo  Mo11  1  0.26533200  5.85039000  2.02491000  1
  Mo  Mo12  1  4.05225000  4.05178000  0.24012000  1
  Mo  Mo13  1  5.94667000  5.83090000  3.82268000  1
  Mo  Mo14  1  5.95277000  4.05260000  2.01721000  1
  Mo  Mo15  1  4.05920000  5.83336000  2.03155000  1
