# generated using pymatgen
data_Mo
_symmetry_space_group_name_H-M   'P 1'
_cell_length_a   8.63614500
_cell_length_b   6.83788031
_cell_length_c   3.42093301
_cell_angle_alpha   90.00000000
_cell_angle_beta   90.00000000
_cell_angle_gamma   90.00000000
_symmetry_Int_Tables_number   1
_chemical_formula_structural   Mo
_chemical_formula_sum   Mo16
_cell_volume   202.01610327
_cell_formula_units_Z   16
loop_
 _symmetry_equiv_pos_site_id
 _symmetry_equiv_pos_as_xyz
  1  'x, y, z'
loop_
 _atom_site_type_symbol
 _atom_site_label
 _atom_site_symmetry_multiplicity
 _atom_site_fract_x
 _atom_site_fract_y
 _atom_site_fract_z
 _atom_site_occupancy
  Mo  Mo0  1  1.88366000  2.34423000  0.31479200  1
  Mo  Mo1  1  1.89217000  0.63603500  2.01726000  1
  Mo  Mo2  1  -0.26931500  2.33948000  2.02218000  1
  Mo  Mo3  1  4.03355000  7.46698000  3.73523000  1
  Mo  Mo4  1  4.05233000  2.33793000  2.03522000  1
  Mo  Mo5  1  -0.24760900  4.04638000  3.72697000  1
  Mo  Mo6  1  1.89114000  5.75276000  0.32431500  1
  Mo  Mo7  1  1.89899000  4.05916000  2.01407000  1
  Mo  Mo8  1  -0.26535600  5.75172000  2.03312000  1
  Mo  Mo9  1  4.05759000  4.04488000  0.30756500  1
  Mo  Mo10  1  4.05840000  5.75944000  2.03494000  1
  Mo  Mo11  1  8.36586000  7.46603000  3.73435000  1
  Mo  Mo12  1  6.18962000  2.34773000  0.32133200  1
  Mo  Mo13  1  6.20927000  0.63386700  2.01954000  1
  Mo  Mo14  1  6.19830000  5.76043000  0.32356100  1
  Mo  Mo15  1  6.21526000  4.05294000  2.01462000  1
