# generated using pymatgen
data_Mo
_symmetry_space_group_name_H-M   'P 1'
_cell_length_a   7.59829372
_cell_length_b   7.15719265
_cell_length_c   3.57672167
_cell_angle_alpha   90.00000000
_cell_angle_beta   90.00000000
_cell_angle_gamma   90.00000000
_symmetry_Int_Tables_number   1
_chemical_formula_structural   Mo
_chemical_formula_sum   Mo16
_cell_volume   194.51089429
_cell_formula_units_Z   16
loop_
 _symmetry_equiv_pos_site_id
 _symmetry_equiv_pos_as_xyz
  1  'x, y, z'
loop_
 _atom_site_type_symbol
 _atom_site_label
 _atom_site_symmetry_multiplicity
 _atom_site_fract_x
 _atom_site_fract_y
 _atom_site_fract_z
 _atom_site_occupancy
  Mo  Mo0  1  0.24772300  7.63155000  3.80273000  1
  Mo  Mo1  1  2.15487000  2.26139000  0.23875800  1
  Mo  Mo2  1  2.13579000  0.46840200  2.02623000  1
  Mo  Mo3  1  0.25305700  2.26748000  2.02983000  1
  Mo  Mo4  1  4.04874000  7.62402000  3.81107000  1
  Mo  Mo5  1  5.95475000  2.25057000  0.23560900  1
  Mo  Mo6  1  5.94951000  0.47769400  2.03008000  1
  Mo  Mo7  1  4.04295000  2.26334000  2.02652000  1
  Mo  Mo8  1  7.84274000  4.04650000  0.22096200  1
  Mo  Mo9  1  2.15384000  5.83733000  0.24627400  1
  Mo  Mo10  1  2.15951000  4.04745000  2.00668000  1
  Mo  Mo11  1  0.25109100  5.83821000  2.03884000  1
  Mo  Mo12  1  4.05372000  4.05819000  0.22903600  1
  Mo  Mo13  1  5.95938000  5.83575000  3.82539000  1
  Mo  Mo14  1  5.94235000  4.05059000  2.01134000  1
  Mo  Mo15  1  4.05168000  5.84152000  2.04394000  1
