# generated using pymatgen
data_Mo
_symmetry_space_group_name_H-M   'P 1'
_cell_length_a   7.71328694
_cell_length_b   7.11601400
_cell_length_c   3.55794978
_cell_angle_alpha   90.00000000
_cell_angle_beta   90.00000000
_cell_angle_gamma   90.00000000
_symmetry_Int_Tables_number   1
_chemical_formula_structural   Mo
_chemical_formula_sum   Mo16
_cell_volume   195.28824185
_cell_formula_units_Z   16
loop_
 _symmetry_equiv_pos_site_id
 _symmetry_equiv_pos_as_xyz
  1  'x, y, z'
loop_
 _atom_site_type_symbol
 _atom_site_label
 _atom_site_symmetry_multiplicity
 _atom_site_fract_x
 _atom_site_fract_y
 _atom_site_fract_z
 _atom_site_occupancy
  Mo  Mo0  1  0.17883500  7.60733000  3.81363000  1
  Mo  Mo1  1  2.11335000  2.27676000  0.23314200  1
  Mo  Mo2  1  2.12099000  0.49287600  2.03649000  1
  Mo  Mo3  1  0.19160100  2.25788000  2.01297000  1
  Mo  Mo4  1  4.05265000  7.61162000  3.82089000  1
  Mo  Mo5  1  5.98922000  2.28026000  0.23091300  1
  Mo  Mo6  1  5.97662000  0.48845100  2.04004000  1
  Mo  Mo7  1  4.04685000  2.27441000  2.01284000  1
  Mo  Mo8  1  7.91044000  4.05033000  0.24406700  1
  Mo  Mo9  1  2.12693000  5.83263000  0.23789400  1
  Mo  Mo10  1  2.11512000  4.04865000  2.02943000  1
  Mo  Mo11  1  0.19547600  5.83172000  2.01501000  1
  Mo  Mo12  1  4.06187000  4.04766000  0.25139900  1
  Mo  Mo13  1  5.98525000  5.82649000  3.80186000  1
  Mo  Mo14  1  5.97639000  4.05526000  2.03407000  1
  Mo  Mo15  1  4.04512000  5.81768000  2.02741000  1
