# generated using pymatgen
data_Mo
_symmetry_space_group_name_H-M   'P 1'
_cell_length_a   8.47457185
_cell_length_b   6.87331641
_cell_length_c   3.44670129
_cell_angle_alpha   90.00000000
_cell_angle_beta   90.00000000
_cell_angle_gamma   90.00000000
_symmetry_Int_Tables_number   1
_chemical_formula_structural   Mo
_chemical_formula_sum   Mo16
_cell_volume   200.76488277
_cell_formula_units_Z   16
loop_
 _symmetry_equiv_pos_site_id
 _symmetry_equiv_pos_as_xyz
  1  'x, y, z'
loop_
 _atom_site_type_symbol
 _atom_site_label
 _atom_site_symmetry_multiplicity
 _atom_site_fract_x
 _atom_site_fract_y
 _atom_site_fract_z
 _atom_site_occupancy
  Mo  Mo0  1  1.93051000  2.33577000  0.30356300  1
  Mo  Mo1  1  1.93500000  0.62377000  2.01971000  1
  Mo  Mo2  1  -0.18903800  2.32837000  2.02522000  1
  Mo  Mo3  1  4.03399000  7.47687000  3.74483000  1
  Mo  Mo4  1  4.04985000  2.33261000  2.03789000  1
  Mo  Mo5  1  -0.17445000  4.04068000  3.75108000  1
  Mo  Mo6  1  1.93714000  5.77038000  0.29705900  1
  Mo  Mo7  1  1.94150000  4.05768000  2.02269000  1
  Mo  Mo8  1  -0.18822400  5.75999000  2.02169000  1
  Mo  Mo9  1  4.04944000  4.04827000  0.31217600  1
  Mo  Mo10  1  4.05308000  5.75771000  2.02684000  1
  Mo  Mo11  1  8.28528000  7.48066000  3.73739000  1
  Mo  Mo12  1  6.15613000  2.33704000  0.31018800  1
  Mo  Mo13  1  6.17591000  0.62130200  2.02107000  1
  Mo  Mo14  1  6.16155000  5.77179000  0.29832700  1
  Mo  Mo15  1  6.16777000  4.05711000  2.02356000  1
