# generated using pymatgen
data_Mo
_symmetry_space_group_name_H-M   'P 1'
_cell_length_a   7.48184505
_cell_length_b   7.19839889
_cell_length_c   3.59815574
_cell_angle_alpha   90.00000000
_cell_angle_beta   90.00000000
_cell_angle_gamma   90.00000000
_symmetry_Int_Tables_number   1
_chemical_formula_structural   Mo
_chemical_formula_sum   Mo16
_cell_volume   193.78697131
_cell_formula_units_Z   16
loop_
 _symmetry_equiv_pos_site_id
 _symmetry_equiv_pos_as_xyz
  1  'x, y, z'
loop_
 _atom_site_type_symbol
 _atom_site_label
 _atom_site_symmetry_multiplicity
 _atom_site_fract_x
 _atom_site_fract_y
 _atom_site_fract_z
 _atom_site_occupancy
  Mo  Mo0  1  0.31614300  7.64743000  3.82298000  1
  Mo  Mo1  1  2.17292000  2.25188000  0.21819200  1
  Mo  Mo2  1  2.17890000  0.45021000  2.03691000  1
  Mo  Mo3  1  0.30704400  2.23956000  2.01825000  1
  Mo  Mo4  1  4.05223000  7.65333000  3.82636000  1
  Mo  Mo5  1  5.91710000  2.25120000  0.21957200  1
  Mo  Mo6  1  5.91803000  0.45051000  2.03863000  1
  Mo  Mo7  1  4.05625000  2.25451000  2.01916000  1
  Mo  Mo8  1  7.79408000  4.05002000  0.22710400  1
  Mo  Mo9  1  2.18164000  5.85485000  0.22474500  1
  Mo  Mo10  1  2.18364000  4.04645000  2.02445000  1
  Mo  Mo11  1  0.31156900  5.85782000  2.02884000  1
  Mo  Mo12  1  4.03957000  4.04802000  0.23048500  1
  Mo  Mo13  1  5.90522000  5.84537000  3.81893000  1
  Mo  Mo14  1  5.92848000  4.05799000  2.02546000  1
  Mo  Mo15  1  4.05534000  5.84084000  2.02179000  1
