# generated using pymatgen
data_Mo
_symmetry_space_group_name_H-M   'P 1'
_cell_length_a   7.62303939
_cell_length_b   7.14808887
_cell_length_c   3.57266879
_cell_angle_alpha   90.00000000
_cell_angle_beta   90.00000000
_cell_angle_gamma   90.00000000
_symmetry_Int_Tables_number   1
_chemical_formula_structural   Mo
_chemical_formula_sum   Mo16
_cell_volume   194.67530501
_cell_formula_units_Z   16
loop_
 _symmetry_equiv_pos_site_id
 _symmetry_equiv_pos_as_xyz
  1  'x, y, z'
loop_
 _atom_site_type_symbol
 _atom_site_label
 _atom_site_symmetry_multiplicity
 _atom_site_fract_x
 _atom_site_fract_y
 _atom_site_fract_z
 _atom_site_occupancy
  Mo  Mo0  1  0.23941000  7.62119000  3.80108000  1
  Mo  Mo1  1  2.14738000  2.25872000  0.25290700  1
  Mo  Mo2  1  2.15980000  0.47844900  2.01428000  1
  Mo  Mo3  1  0.24889800  2.25555000  2.04474000  1
  Mo  Mo4  1  4.06047000  7.62496000  3.79377000  1
  Mo  Mo5  1  5.96712000  2.26067000  0.24696800  1
  Mo  Mo6  1  5.95739000  0.47693400  2.01184000  1
  Mo  Mo7  1  4.05164000  2.26861000  2.03363000  1
  Mo  Mo8  1  7.85219000  4.05133000  0.23808300  1
  Mo  Mo9  1  2.14756000  5.83850000  0.24445700  1
  Mo  Mo10  1  2.13433000  4.04795000  2.02092000  1
  Mo  Mo11  1  0.24166800  5.84958000  2.03714000  1
  Mo  Mo12  1  4.04117000  4.04593000  0.23083400  1
  Mo  Mo13  1  5.94940000  5.83116000  3.81151000  1
  Mo  Mo14  1  5.94031000  4.05679000  2.01850000  1
  Mo  Mo15  1  4.03822000  5.83368000  2.02666000  1
