# generated using pymatgen
data_Mo
_symmetry_space_group_name_H-M   'P 1'
_cell_length_a   8.15870473
_cell_length_b   6.97784638
_cell_length_c   3.48838401
_cell_angle_alpha   90.00000000
_cell_angle_beta   90.00000000
_cell_angle_gamma   90.00000000
_symmetry_Int_Tables_number   1
_chemical_formula_structural   Mo
_chemical_formula_sum   Mo16
_cell_volume   198.59435845
_cell_formula_units_Z   16
loop_
 _symmetry_equiv_pos_site_id
 _symmetry_equiv_pos_as_xyz
  1  'x, y, z'
loop_
 _atom_site_type_symbol
 _atom_site_label
 _atom_site_symmetry_multiplicity
 _atom_site_fract_x
 _atom_site_fract_y
 _atom_site_fract_z
 _atom_site_occupancy
  Mo  Mo0  1  -0.01751110  7.54245000  3.76823000  1
  Mo  Mo1  1  2.01247000  2.30027000  0.28216300  1
  Mo  Mo2  1  2.01938000  0.56117900  2.02453000  1
  Mo  Mo3  1  -0.02107350  2.30770000  2.03248000  1
  Mo  Mo4  1  4.06251000  7.54138000  3.76705000  1
  Mo  Mo5  1  6.09152000  2.30341000  0.27840500  1
  Mo  Mo6  1  6.09601000  0.55836700  2.02205000  1
  Mo  Mo7  1  4.05232000  2.31594000  2.02544000  1
  Mo  Mo8  1  8.12454000  4.05276000  0.26961800  1
  Mo  Mo9  1  2.00728000  5.79055000  0.28438200  1
  Mo  Mo10  1  2.00541000  4.04504000  2.02284000  1
  Mo  Mo11  1  -0.03004730  5.79868000  2.03069000  1
  Mo  Mo12  1  4.04234000  4.05541000  0.26864200  1
  Mo  Mo13  1  6.07797000  5.78921000  3.77763000  1
  Mo  Mo14  1  6.07511000  4.04812000  2.02156000  1
  Mo  Mo15  1  4.04307000  5.78953000  2.03591000  1
