# generated using pymatgen
data_Mo
_symmetry_space_group_name_H-M   'P 1'
_cell_length_a   7.75986689
_cell_length_b   7.09968138
_cell_length_c   3.55074930
_cell_angle_alpha   90.00000000
_cell_angle_beta   90.00000000
_cell_angle_gamma   90.00000000
_symmetry_Int_Tables_number   1
_chemical_formula_structural   Mo
_chemical_formula_sum   Mo16
_cell_volume   195.61994876
_cell_formula_units_Z   16
loop_
 _symmetry_equiv_pos_site_id
 _symmetry_equiv_pos_as_xyz
  1  'x, y, z'
loop_
 _atom_site_type_symbol
 _atom_site_label
 _atom_site_symmetry_multiplicity
 _atom_site_fract_x
 _atom_site_fract_y
 _atom_site_fract_z
 _atom_site_occupancy
  Mo  Mo0  1  0.15847200  7.60193000  3.79553000  1
  Mo  Mo1  1  2.10920000  2.26352000  0.25384200  1
  Mo  Mo2  1  2.10620000  0.50109400  2.01697000  1
  Mo  Mo3  1  0.16439100  2.26931000  2.02502000  1
  Mo  Mo4  1  4.03131000  7.60590000  3.80001000  1
  Mo  Mo5  1  5.98668000  2.27013000  0.25622700  1
  Mo  Mo6  1  5.97653000  0.49252500  2.01972000  1
  Mo  Mo7  1  4.04767000  2.28495000  2.03208000  1
  Mo  Mo8  1  7.94914000  4.05926000  0.24789500  1
  Mo  Mo9  1  2.12938000  5.82700000  0.24366200  1
  Mo  Mo10  1  2.11466000  4.04292000  2.03533000  1
  Mo  Mo11  1  0.17608100  5.83526000  2.01168000  1
  Mo  Mo12  1  4.05375000  4.05391000  0.25270400  1
  Mo  Mo13  1  5.98996000  5.82502000  3.79862000  1
  Mo  Mo14  1  5.99332000  4.04431000  2.03834000  1
  Mo  Mo15  1  4.05339000  5.82298000  2.02161000  1
