# generated using pymatgen
data_Mo
_symmetry_space_group_name_H-M   'P 1'
_cell_length_a   7.71910973
_cell_length_b   7.11253569
_cell_length_c   3.55765533
_cell_angle_alpha   90.00000000
_cell_angle_beta   90.00000000
_cell_angle_gamma   90.00000000
_symmetry_Int_Tables_number   1
_chemical_formula_structural   Mo
_chemical_formula_sum   Mo16
_cell_volume   195.32397066
_cell_formula_units_Z   16
loop_
 _symmetry_equiv_pos_site_id
 _symmetry_equiv_pos_as_xyz
  1  'x, y, z'
loop_
 _atom_site_type_symbol
 _atom_site_label
 _atom_site_symmetry_multiplicity
 _atom_site_fract_x
 _atom_site_fract_y
 _atom_site_fract_z
 _atom_site_occupancy
  Mo  Mo0  1  0.17811000  7.59710000  3.80763000  1
  Mo  Mo1  1  2.10387000  2.27711000  0.23701100  1
  Mo  Mo2  1  2.11481000  0.50528300  2.02093000  1
  Mo  Mo3  1  0.18295600  2.26234000  2.02051000  1
  Mo  Mo4  1  4.04771000  7.60442000  3.81252000  1
  Mo  Mo5  1  5.97578000  2.28667000  0.24387500  1
  Mo  Mo6  1  5.97114000  0.49535900  2.02315000  1
  Mo  Mo7  1  4.04975000  2.27006000  2.03443000  1
  Mo  Mo8  1  7.92092000  4.04811000  0.24423900  1
  Mo  Mo9  1  2.11831000  5.82879000  0.23688100  1
  Mo  Mo10  1  2.12141000  4.05993000  2.03205000  1
  Mo  Mo11  1  0.19631600  5.82066000  2.01724000  1
  Mo  Mo12  1  4.06472000  4.03939000  0.24908300  1
  Mo  Mo13  1  5.98151000  5.83146000  3.79996000  1
  Mo  Mo14  1  5.99841000  4.05529000  2.03394000  1
  Mo  Mo15  1  4.05517000  5.81803000  2.02889000  1
