# generated using pymatgen
data_Mo
_symmetry_space_group_name_H-M   'P 1'
_cell_length_a   8.09174597
_cell_length_b   6.99832678
_cell_length_c   3.49833655
_cell_angle_alpha   90.00000000
_cell_angle_beta   90.00000000
_cell_angle_gamma   90.00000000
_symmetry_Int_Tables_number   1
_chemical_formula_structural   Mo
_chemical_formula_sum   Mo16
_cell_volume   198.10618990
_cell_formula_units_Z   16
loop_
 _symmetry_equiv_pos_site_id
 _symmetry_equiv_pos_as_xyz
  1  'x, y, z'
loop_
 _atom_site_type_symbol
 _atom_site_label
 _atom_site_symmetry_multiplicity
 _atom_site_fract_x
 _atom_site_fract_y
 _atom_site_fract_z
 _atom_site_occupancy
  Mo  Mo0  1  0.00369015  7.54788000  3.78742000  1
  Mo  Mo1  1  2.02161000  2.29564000  0.26225000  1
  Mo  Mo2  1  2.01425000  0.55315700  2.03056000  1
  Mo  Mo3  1  0.00021810  2.29009000  2.00387000  1
  Mo  Mo4  1  4.05601000  7.55238000  3.79315000  1
  Mo  Mo5  1  6.08434000  2.30451000  0.27121000  1
  Mo  Mo6  1  6.06831000  0.54337300  2.03258000  1
  Mo  Mo7  1  4.05565000  2.30632000  2.01958000  1
  Mo  Mo8  1  8.09389000  4.05479000  0.27315600  1
  Mo  Mo9  1  2.02973000  5.80380000  0.27527800  1
  Mo  Mo10  1  2.02152000  4.04628000  2.02919000  1
  Mo  Mo11  1  0.00391552  5.80635000  2.01536000  1
  Mo  Mo12  1  4.04771000  4.05096000  0.27838200  1
  Mo  Mo13  1  6.07364000  5.80462000  3.77675000  1
  Mo  Mo14  1  6.07758000  4.04585000  2.03056000  1
  Mo  Mo15  1  4.05620000  5.79399000  2.02238000  1
