# generated using pymatgen
data_Mo
_symmetry_space_group_name_H-M   'P 1'
_cell_length_a   7.66088516
_cell_length_b   7.13376632
_cell_length_c   3.56674957
_cell_angle_alpha   90.00000000
_cell_angle_beta   90.00000000
_cell_angle_gamma   90.00000000
_symmetry_Int_Tables_number   1
_chemical_formula_structural   Mo
_chemical_formula_sum   Mo16
_cell_volume   194.92630438
_cell_formula_units_Z   16
loop_
 _symmetry_equiv_pos_site_id
 _symmetry_equiv_pos_as_xyz
  1  'x, y, z'
loop_
 _atom_site_type_symbol
 _atom_site_label
 _atom_site_symmetry_multiplicity
 _atom_site_fract_x
 _atom_site_fract_y
 _atom_site_fract_z
 _atom_site_occupancy
  Mo  Mo0  1  0.23042100  7.61816000  3.81098000  1
  Mo  Mo1  1  2.13554000  2.27055000  0.23982000  1
  Mo  Mo2  1  2.13483000  0.48101400  2.03909000  1
  Mo  Mo3  1  0.21879900  2.26666000  2.02689000  1
  Mo  Mo4  1  4.06959000  7.61928000  3.80473000  1
  Mo  Mo5  1  5.97623000  2.26891000  0.23178600  1
  Mo  Mo6  1  5.97102000  0.48354400  2.03556000  1
  Mo  Mo7  1  4.05595000  2.26918000  2.01062000  1
  Mo  Mo8  1  7.86730000  4.05463000  0.25808100  1
  Mo  Mo9  1  2.12600000  5.83587000  0.22999800  1
  Mo  Mo10  1  2.12286000  4.04325000  2.03626000  1
  Mo  Mo11  1  0.21305900  5.83099000  2.01859000  1
  Mo  Mo12  1  4.04155000  4.05416000  0.25172500  1
  Mo  Mo13  1  5.96363000  5.82940000  3.79451000  1
  Mo  Mo14  1  5.96519000  4.05083000  2.03353000  1
  Mo  Mo15  1  4.04714000  5.82355000  2.01109000  1
