# generated using pymatgen
data_Mo
_symmetry_space_group_name_H-M   'P 1'
_cell_length_a   7.57937086
_cell_length_b   7.16227487
_cell_length_c   3.58075237
_cell_angle_alpha   90.00000000
_cell_angle_beta   90.00000000
_cell_angle_gamma   90.00000000
_symmetry_Int_Tables_number   1
_chemical_formula_structural   Mo
_chemical_formula_sum   Mo16
_cell_volume   194.38306683
_cell_formula_units_Z   16
loop_
 _symmetry_equiv_pos_site_id
 _symmetry_equiv_pos_as_xyz
  1  'x, y, z'
loop_
 _atom_site_type_symbol
 _atom_site_label
 _atom_site_symmetry_multiplicity
 _atom_site_fract_x
 _atom_site_fract_y
 _atom_site_fract_z
 _atom_site_occupancy
  Mo  Mo0  1  0.26171500  7.63832000  3.81403000  1
  Mo  Mo1  1  2.15317000  2.25556000  0.23700800  1
  Mo  Mo2  1  2.15761000  0.46167200  2.02910000  1
  Mo  Mo3  1  0.25134800  2.26013000  2.02884000  1
  Mo  Mo4  1  4.05141000  7.64377000  3.81004000  1
  Mo  Mo5  1  5.95286000  2.25847000  0.23186200  1
  Mo  Mo6  1  5.95129000  0.45881400  2.02790000  1
  Mo  Mo7  1  4.05764000  2.26956000  2.02051000  1
  Mo  Mo8  1  7.84370000  4.06162000  0.24434800  1
  Mo  Mo9  1  2.15840000  5.83517000  0.22325200  1
  Mo  Mo10  1  2.14127000  4.04083000  2.04127000  1
  Mo  Mo11  1  0.25108900  5.84858000  2.01408000  1
  Mo  Mo12  1  4.04607000  4.05401000  0.24061700  1
  Mo  Mo13  1  5.94349000  5.83002000  3.80325000  1
  Mo  Mo14  1  5.94938000  4.04586000  2.04074000  1
  Mo  Mo15  1  4.05017000  5.83761000  2.01240000  1
