# generated using pymatgen
data_Mo
_symmetry_space_group_name_H-M   'P 1'
_cell_length_a   7.64341773
_cell_length_b   7.13799626
_cell_length_c   3.57056022
_cell_angle_alpha   90.00000000
_cell_angle_beta   90.00000000
_cell_angle_gamma   90.00000000
_symmetry_Int_Tables_number   1
_chemical_formula_structural   Mo
_chemical_formula_sum   Mo16
_cell_volume   194.80507782
_cell_formula_units_Z   16
loop_
 _symmetry_equiv_pos_site_id
 _symmetry_equiv_pos_as_xyz
  1  'x, y, z'
loop_
 _atom_site_type_symbol
 _atom_site_label
 _atom_site_symmetry_multiplicity
 _atom_site_fract_x
 _atom_site_fract_y
 _atom_site_fract_z
 _atom_site_occupancy
  Mo  Mo0  1  0.22565000  7.61602000  3.80209000  1
  Mo  Mo1  1  2.13364000  2.27449000  0.23582000  1
  Mo  Mo2  1  2.12717000  0.48395200  2.02211000  1
  Mo  Mo3  1  0.22737200  2.25940000  2.02114000  1
  Mo  Mo4  1  4.03375000  7.60927000  3.81452000  1
  Mo  Mo5  1  5.94520000  2.26335000  0.24220400  1
  Mo  Mo6  1  5.96022000  0.49207100  2.02918000  1
  Mo  Mo7  1  4.04471000  2.25624000  2.03359000  1
  Mo  Mo8  1  7.88352000  4.03624000  0.23296400  1
  Mo  Mo9  1  2.14194000  5.84175000  0.24307900  1
  Mo  Mo10  1  2.16220000  4.05726000  2.01263000  1
  Mo  Mo11  1  0.23230200  5.83014000  2.03336000  1
  Mo  Mo12  1  4.05687000  4.04713000  0.24536300  1
  Mo  Mo13  1  5.95699000  5.83995000  3.81093000  1
  Mo  Mo14  1  5.96483000  4.05975000  2.01841000  1
  Mo  Mo15  1  4.06021000  5.83298000  2.03205000  1
