# generated using pymatgen
data_Mo
_symmetry_space_group_name_H-M   'P 1'
_cell_length_a   7.46728855
_cell_length_b   7.20299399
_cell_length_c   3.60139918
_cell_angle_alpha   90.00000000
_cell_angle_beta   90.00000000
_cell_angle_gamma   90.00000000
_symmetry_Int_Tables_number   1
_chemical_formula_structural   Mo
_chemical_formula_sum   Mo16
_cell_volume   193.70786208
_cell_formula_units_Z   16
loop_
 _symmetry_equiv_pos_site_id
 _symmetry_equiv_pos_as_xyz
  1  'x, y, z'
loop_
 _atom_site_type_symbol
 _atom_site_label
 _atom_site_symmetry_multiplicity
 _atom_site_fract_x
 _atom_site_fract_y
 _atom_site_fract_z
 _atom_site_occupancy
  Mo  Mo0  1  0.31742600  7.64845000  3.81683000  1
  Mo  Mo1  1  2.19045000  2.24850000  0.23700600  1
  Mo  Mo2  1  2.18943000  0.45262600  2.01406000  1
  Mo  Mo3  1  0.32119600  2.25358000  2.04478000  1
  Mo  Mo4  1  4.06165000  7.64739000  3.81070000  1
  Mo  Mo5  1  5.92687000  2.24887000  0.23043400  1
  Mo  Mo6  1  5.91710000  0.45385700  2.01146000  1
  Mo  Mo7  1  4.04964000  2.24706000  2.03395000  1
  Mo  Mo8  1  7.77301000  4.04961000  0.22664500  1
  Mo  Mo9  1  2.17873000  5.85179000  0.22264100  1
  Mo  Mo10  1  2.17005000  4.05234000  2.02546000  1
  Mo  Mo11  1  0.31492400  5.84484000  2.02902000  1
  Mo  Mo12  1  4.04942000  4.04799000  0.22046000  1
  Mo  Mo13  1  5.92509000  5.85169000  3.82377000  1
  Mo  Mo14  1  5.90707000  4.05130000  2.02377000  1
  Mo  Mo15  1  4.04066000  5.85011000  2.02761000  1
