# generated using pymatgen
data_Mo
_symmetry_space_group_name_H-M   'P 1'
_cell_length_a   7.83410294
_cell_length_b   7.07605296
_cell_length_c   3.53861046
_cell_angle_alpha   90.00000000
_cell_angle_beta   90.00000000
_cell_angle_gamma   90.00000000
_symmetry_Int_Tables_number   1
_chemical_formula_structural   Mo
_chemical_formula_sum   Mo16
_cell_volume   196.16119824
_cell_formula_units_Z   16
loop_
 _symmetry_equiv_pos_site_id
 _symmetry_equiv_pos_as_xyz
  1  'x, y, z'
loop_
 _atom_site_type_symbol
 _atom_site_label
 _atom_site_symmetry_multiplicity
 _atom_site_fract_x
 _atom_site_fract_y
 _atom_site_fract_z
 _atom_site_occupancy
  Mo  Mo0  1  0.12530600  7.59491000  3.77481000  1
  Mo  Mo1  1  2.08798000  2.27497000  0.26259200  1
  Mo  Mo2  1  2.08710000  0.50738400  2.01682000  1
  Mo  Mo3  1  0.12605100  2.29070000  2.02867000  1
  Mo  Mo4  1  4.04139000  7.59515000  3.78136000  1
  Mo  Mo5  1  5.99779000  2.27622000  0.27173100  1
  Mo  Mo6  1  5.99924000  0.50630200  2.01946000  1
  Mo  Mo7  1  4.04315000  2.28403000  2.04358000  1
  Mo  Mo8  1  7.96986000  4.05442000  0.25059900  1
  Mo  Mo9  1  2.09022000  5.80870000  0.25499700  1
  Mo  Mo10  1  2.11012000  4.04876000  2.02738000  1
  Mo  Mo11  1  0.13872200  5.82008000  2.02364000  1
  Mo  Mo12  1  4.05254000  4.05565000  0.25676700  1
  Mo  Mo13  1  6.01180000  5.81060000  3.79438000  1
  Mo  Mo14  1  6.03080000  4.04421000  2.02874000  1
  Mo  Mo15  1  4.05381000  5.82793000  2.02586000  1
