# generated using pymatgen
data_Mo
_symmetry_space_group_name_H-M   'P 1'
_cell_length_a   7.30426040
_cell_length_b   7.26768070
_cell_length_c   3.63339162
_cell_angle_alpha   90.00000000
_cell_angle_beta   90.00000000
_cell_angle_gamma   90.00000000
_symmetry_Int_Tables_number   1
_chemical_formula_structural   Mo
_chemical_formula_sum   Mo16
_cell_volume   192.87871177
_cell_formula_units_Z   16
loop_
 _symmetry_equiv_pos_site_id
 _symmetry_equiv_pos_as_xyz
  1  'x, y, z'
loop_
 _atom_site_type_symbol
 _atom_site_label
 _atom_site_symmetry_multiplicity
 _atom_site_fract_x
 _atom_site_fract_y
 _atom_site_fract_z
 _atom_site_occupancy
  Mo  Mo0  1  0.39494800  7.67341000  3.82920000  1
  Mo  Mo1  1  2.23216000  2.23914000  0.21037300  1
  Mo  Mo2  1  2.21177000  0.42060800  2.02081000  1
  Mo  Mo3  1  0.40104500  2.23597000  2.02616000  1
  Mo  Mo4  1  4.04553000  7.67348000  3.84131000  1
  Mo  Mo5  1  5.87187000  2.22726000  0.21324100  1
  Mo  Mo6  1  5.85397000  0.43241900  2.02689000  1
  Mo  Mo7  1  4.03627000  2.21957000  2.03301000  1
  Mo  Mo8  1  7.70184000  4.04013000  0.19443300  1
  Mo  Mo9  1  2.22968000  5.87761000  0.22002800  1
  Mo  Mo10  1  2.23925000  4.05742000  2.00168000  1
  Mo  Mo11  1  0.40816800  5.85531000  2.04029000  1
  Mo  Mo12  1  4.05732000  4.04475000  0.20658300  1
  Mo  Mo13  1  5.88697000  5.87489000  3.85306000  1
  Mo  Mo14  1  5.87569000  4.05765000  2.00729000  1
  Mo  Mo15  1  4.04928000  5.87040000  2.04226000  1
