# generated using pymatgen
data_Mo
_symmetry_space_group_name_H-M   'P 1'
_cell_length_a   8.28970943
_cell_length_b   6.93611073
_cell_length_c   3.46984458
_cell_angle_alpha   90.00000000
_cell_angle_beta   90.00000000
_cell_angle_gamma   90.00000000
_symmetry_Int_Tables_number   1
_chemical_formula_structural   Mo
_chemical_formula_sum   Mo16
_cell_volume   199.51031221
_cell_formula_units_Z   16
loop_
 _symmetry_equiv_pos_site_id
 _symmetry_equiv_pos_as_xyz
  1  'x, y, z'
loop_
 _atom_site_type_symbol
 _atom_site_label
 _atom_site_symmetry_multiplicity
 _atom_site_fract_x
 _atom_site_fract_y
 _atom_site_fract_z
 _atom_site_occupancy
  Mo  Mo0  1  1.97318000  2.32291000  0.29018200  1
  Mo  Mo1  1  1.95906000  0.57543600  2.02199000  1
  Mo  Mo2  1  -0.09379780  2.32196000  2.02809000  1
  Mo  Mo3  1  4.04999000  7.51726000  3.76677000  1
  Mo  Mo4  1  4.04400000  2.31754000  2.02193000  1
  Mo  Mo5  1  -0.09452140  4.04618000  3.75897000  1
  Mo  Mo6  1  1.97863000  5.77957000  0.28396700  1
  Mo  Mo7  1  1.97965000  4.04778000  2.03158000  1
  Mo  Mo8  1  -0.09199670  5.78427000  2.01754000  1
  Mo  Mo9  1  4.06627000  4.05538000  0.29488100  1
  Mo  Mo10  1  4.05420000  5.78561000  2.02162000  1
  Mo  Mo11  1  8.18500000  7.52294000  3.76095000  1
  Mo  Mo12  1  6.12869000  2.31352000  0.28625100  1
  Mo  Mo13  1  6.11969000  0.58284700  2.02397000  1
  Mo  Mo14  1  6.13546000  5.77700000  0.28717300  1
  Mo  Mo15  1  6.11678000  4.04978000  2.03430000  1
