# generated using pymatgen
data_Mo
_symmetry_space_group_name_H-M   'P 1'
_cell_length_a   8.38869116
_cell_length_b   6.91389483
_cell_length_c   3.45153975
_cell_angle_alpha   90.00000000
_cell_angle_beta   90.00000000
_cell_angle_gamma   90.00000000
_symmetry_Int_Tables_number   1
_chemical_formula_structural   Mo
_chemical_formula_sum   Mo16
_cell_volume   200.18422663
_cell_formula_units_Z   16
loop_
 _symmetry_equiv_pos_site_id
 _symmetry_equiv_pos_as_xyz
  1  'x, y, z'
loop_
 _atom_site_type_symbol
 _atom_site_label
 _atom_site_symmetry_multiplicity
 _atom_site_fract_x
 _atom_site_fract_y
 _atom_site_fract_z
 _atom_site_occupancy
  Mo  Mo0  1  1.94430000  2.32197000  0.31113400  1
  Mo  Mo1  1  1.94628000  0.60298900  2.01686000  1
  Mo  Mo2  1  -0.15485900  2.31925000  2.04048000  1
  Mo  Mo3  1  4.03862000  7.49964000  3.73336000  1
  Mo  Mo4  1  4.05166000  2.32026000  2.03900000  1
  Mo  Mo5  1  -0.13873300  4.04523000  3.75195000  1
  Mo  Mo6  1  1.95297000  5.78060000  0.29504500  1
  Mo  Mo7  1  1.95924000  4.05923000  2.01897000  1
  Mo  Mo8  1  -0.14710000  5.77136000  2.02554000  1
  Mo  Mo9  1  4.05401000  4.04283000  0.30030900  1
  Mo  Mo10  1  4.05867000  5.77264000  2.03681000  1
  Mo  Mo11  1  8.23520000  7.49672000  3.73337000  1
  Mo  Mo12  1  6.14456000  2.32616000  0.30991300  1
  Mo  Mo13  1  6.14986000  0.60019500  2.01514000  1
  Mo  Mo14  1  6.15100000  5.78594000  0.30222800  1
  Mo  Mo15  1  6.16563000  4.05498000  2.01836000  1
