# generated using pymatgen
data_Mo
_symmetry_space_group_name_H-M   'P 1'
_cell_length_a   8.19509503
_cell_length_b   6.96618325
_cell_length_c   3.48330903
_cell_angle_alpha   90.00000000
_cell_angle_beta   90.00000000
_cell_angle_gamma   90.00000000
_symmetry_Int_Tables_number   1
_chemical_formula_structural   Mo
_chemical_formula_sum   Mo16
_cell_volume   198.85700491
_cell_formula_units_Z   16
loop_
 _symmetry_equiv_pos_site_id
 _symmetry_equiv_pos_as_xyz
  1  'x, y, z'
loop_
 _atom_site_type_symbol
 _atom_site_label
 _atom_site_symmetry_multiplicity
 _atom_site_fract_x
 _atom_site_fract_y
 _atom_site_fract_z
 _atom_site_occupancy
  Mo  Mo0  1  -0.03259010  7.53536000  3.77181000  1
  Mo  Mo1  1  1.99951000  2.30182000  0.27895500  1
  Mo  Mo2  1  2.00622000  0.56807500  2.02821000  1
  Mo  Mo3  1  -0.04779330  2.30496000  2.02095000  1
  Mo  Mo4  1  4.06343000  7.53476000  3.76495000  1
  Mo  Mo5  1  6.09903000  2.31003000  0.28277700  1
  Mo  Mo6  1  6.10929000  0.56180900  2.02569000  1
  Mo  Mo7  1  4.06368000  2.30640000  2.02646000  1
  Mo  Mo8  1  8.13767000  4.05138000  0.28790900  1
  Mo  Mo9  1  1.98684000  5.79008000  0.27957700  1
  Mo  Mo10  1  1.99079000  4.05212000  2.03616000  1
  Mo  Mo11  1  -0.05385530  5.79483000  2.02147000  1
  Mo  Mo12  1  4.03552000  4.04879000  0.28155800  1
  Mo  Mo13  1  6.08924000  5.79470000  3.75989000  1
  Mo  Mo14  1  6.10356000  4.04803000  2.03282000  1
  Mo  Mo15  1  4.05437000  5.79685000  2.01750000  1
