# generated using pymatgen
data_Mo
_symmetry_space_group_name_H-M   'P 1'
_cell_length_a   7.83264749
_cell_length_b   7.07733876
_cell_length_c   3.53841853
_cell_angle_alpha   90.00000000
_cell_angle_beta   90.00000000
_cell_angle_gamma   90.00000000
_symmetry_Int_Tables_number   1
_chemical_formula_structural   Mo
_chemical_formula_sum   Mo16
_cell_volume   196.14975305
_cell_formula_units_Z   16
loop_
 _symmetry_equiv_pos_site_id
 _symmetry_equiv_pos_as_xyz
  1  'x, y, z'
loop_
 _atom_site_type_symbol
 _atom_site_label
 _atom_site_symmetry_multiplicity
 _atom_site_fract_x
 _atom_site_fract_y
 _atom_site_fract_z
 _atom_site_occupancy
  Mo  Mo0  1  0.12592300  7.59648000  3.77459000  1
  Mo  Mo1  1  2.08631000  2.27272000  0.26336100  1
  Mo  Mo2  1  2.08578000  0.50787600  2.01320000  1
  Mo  Mo3  1  0.12780400  2.29284000  2.03004000  1
  Mo  Mo4  1  4.04515000  7.59429000  3.78065000  1
  Mo  Mo5  1  5.99936000  2.27528000  0.27382200  1
  Mo  Mo6  1  6.00201000  0.50510700  2.01568000  1
  Mo  Mo7  1  4.04242000  2.28654000  2.04777000  1
  Mo  Mo8  1  7.96605000  4.05416000  0.24683700  1
  Mo  Mo9  1  2.08720000  5.80575000  0.25667400  1
  Mo  Mo10  1  2.11089000  4.04992000  2.02752000  1
  Mo  Mo11  1  0.13863900  5.81976000  2.02460000  1
  Mo  Mo12  1  4.05483000  4.05691000  0.25256000  1
  Mo  Mo13  1  6.01273000  5.81095000  3.79667000  1
  Mo  Mo14  1  6.02891000  4.04247000  2.02869000  1
  Mo  Mo15  1  4.05335000  5.82895000  2.02892000  1
