# generated using pymatgen
data_Mo
_symmetry_space_group_name_H-M   'P 1'
_cell_length_a   7.92580643
_cell_length_b   7.04733020
_cell_length_c   3.52410364
_cell_angle_alpha   90.00000000
_cell_angle_beta   90.00000000
_cell_angle_gamma   90.00000000
_symmetry_Int_Tables_number   1
_chemical_formula_structural   Mo
_chemical_formula_sum   Mo16
_cell_volume   196.84154003
_cell_formula_units_Z   16
loop_
 _symmetry_equiv_pos_site_id
 _symmetry_equiv_pos_as_xyz
  1  'x, y, z'
loop_
 _atom_site_type_symbol
 _atom_site_label
 _atom_site_symmetry_multiplicity
 _atom_site_fract_x
 _atom_site_fract_y
 _atom_site_fract_z
 _atom_site_occupancy
  Mo  Mo0  1  0.09381390  7.56850000  3.78911000  1
  Mo  Mo1  1  2.07971000  2.28699000  0.26272200  1
  Mo  Mo2  1  2.08059000  0.52636700  2.03477000  1
  Mo  Mo3  1  0.08672760  2.28423000  2.03230000  1
  Mo  Mo4  1  4.04959000  7.57626000  3.78354000  1
  Mo  Mo5  1  6.03482000  2.28630000  0.25329600  1
  Mo  Mo6  1  6.03050000  0.52979200  2.03126000  1
  Mo  Mo7  1  4.05888000  2.28328000  2.01375000  1
  Mo  Mo8  1  8.01418000  4.05041000  0.26745800  1
  Mo  Mo9  1  2.07387000  5.81912000  0.26251900  1
  Mo  Mo10  1  2.04970000  4.04946000  2.01923000  1
  Mo  Mo11  1  0.08318350  5.81554000  2.03309000  1
  Mo  Mo12  1  4.03763000  4.04407000  0.26230400  1
  Mo  Mo13  1  6.02879000  5.81087000  3.78578000  1
  Mo  Mo14  1  6.02541000  4.05728000  2.01695000  1
  Mo  Mo15  1  4.04679000  5.81153000  2.02782000  1
