# generated using pymatgen
data_Mo
_symmetry_space_group_name_H-M   'P 1'
_cell_length_a   8.02187724
_cell_length_b   7.01907760
_cell_length_c   3.50900412
_cell_angle_alpha   90.00000000
_cell_angle_beta   90.00000000
_cell_angle_gamma   90.00000000
_symmetry_Int_Tables_number   1
_chemical_formula_structural   Mo
_chemical_formula_sum   Mo16
_cell_volume   197.57861322
_cell_formula_units_Z   16
loop_
 _symmetry_equiv_pos_site_id
 _symmetry_equiv_pos_as_xyz
  1  'x, y, z'
loop_
 _atom_site_type_symbol
 _atom_site_label
 _atom_site_symmetry_multiplicity
 _atom_site_fract_x
 _atom_site_fract_y
 _atom_site_fract_z
 _atom_site_occupancy
  Mo  Mo0  1  0.03321110  7.55656000  3.79457000  1
  Mo  Mo1  1  2.03517000  2.30666000  0.25096300  1
  Mo  Mo2  1  2.03685000  0.54647200  2.03300000  1
  Mo  Mo3  1  0.03935500  2.28539000  2.00875000  1
  Mo  Mo4  1  4.04789000  7.55527000  3.79968000  1
  Mo  Mo5  1  6.04982000  2.30845000  0.25649000  1
  Mo  Mo6  1  6.04665000  0.54226800  2.03637000  1
  Mo  Mo7  1  4.03990000  2.29047000  2.02127000  1
  Mo  Mo8  1  8.06558000  4.04389000  0.26695500  1
  Mo  Mo9  1  2.04607000  5.80615000  0.26540200  1
  Mo  Mo10  1  2.06291000  4.05859000  2.02813000  1
  Mo  Mo11  1  0.04686640  5.79617000  2.02170000  1
  Mo  Mo12  1  4.06033000  4.04365000  0.27208000  1
  Mo  Mo13  1  6.05366000  5.80995000  3.77626000  1
  Mo  Mo14  1  6.06270000  4.05484000  2.03088000  1
  Mo  Mo15  1  4.05116000  5.79521000  2.02850000  1
