# generated using pymatgen
data_Mo
_symmetry_space_group_name_H-M   'P 1'
_cell_length_a   7.58664909
_cell_length_b   7.15857342
_cell_length_c   3.58008933
_cell_angle_alpha   90.00000000
_cell_angle_beta   90.00000000
_cell_angle_gamma   90.00000000
_symmetry_Int_Tables_number   1
_chemical_formula_structural   Mo
_chemical_formula_sum   Mo16
_cell_volume   194.43316407
_cell_formula_units_Z   16
loop_
 _symmetry_equiv_pos_site_id
 _symmetry_equiv_pos_as_xyz
  1  'x, y, z'
loop_
 _atom_site_type_symbol
 _atom_site_label
 _atom_site_symmetry_multiplicity
 _atom_site_fract_x
 _atom_site_fract_y
 _atom_site_fract_z
 _atom_site_occupancy
  Mo  Mo0  1  0.26475800  7.62600000  3.82784000  1
  Mo  Mo1  1  2.15565000  2.26089000  0.23146900  1
  Mo  Mo2  1  2.17859000  0.47479500  2.02501000  1
  Mo  Mo3  1  0.26385700  2.25424000  2.02282000  1
  Mo  Mo4  1  4.05549000  7.62977000  3.81497000  1
  Mo  Mo5  1  5.94387000  2.26844000  0.23381400  1
  Mo  Mo6  1  5.95704000  0.46964300  2.01914000  1
  Mo  Mo7  1  4.05384000  2.25015000  2.02400000  1
  Mo  Mo8  1  7.83726000  4.05015000  0.24767700  1
  Mo  Mo9  1  2.14592000  5.84091000  0.22984900  1
  Mo  Mo10  1  2.14579000  4.05686000  2.04116000  1
  Mo  Mo11  1  0.25429600  5.83706000  2.02019000  1
  Mo  Mo12  1  4.04071000  4.04155000  0.23504200  1
  Mo  Mo13  1  5.93508000  5.84763000  3.80405000  1
  Mo  Mo14  1  5.94047000  4.05016000  2.03406000  1
  Mo  Mo15  1  4.04073000  5.84175000  2.00882000  1
