# generated using pymatgen
data_Mo
_symmetry_space_group_name_H-M   'P 1'
_cell_length_a   7.99567611
_cell_length_b   7.02697802
_cell_length_c   3.51296592
_cell_angle_alpha   90.00000000
_cell_angle_beta   90.00000000
_cell_angle_gamma   90.00000000
_symmetry_Int_Tables_number   1
_chemical_formula_structural   Mo
_chemical_formula_sum   Mo16
_cell_volume   197.37753660
_cell_formula_units_Z   16
loop_
 _symmetry_equiv_pos_site_id
 _symmetry_equiv_pos_as_xyz
  1  'x, y, z'
loop_
 _atom_site_type_symbol
 _atom_site_label
 _atom_site_symmetry_multiplicity
 _atom_site_fract_x
 _atom_site_fract_y
 _atom_site_fract_z
 _atom_site_occupancy
  Mo  Mo0  1  0.04597940  7.56190000  3.79528000  1
  Mo  Mo1  1  2.04904000  2.31024000  0.26150100  1
  Mo  Mo2  1  2.05806000  0.53549500  2.03321000  1
  Mo  Mo3  1  0.05538370  2.29215000  2.01796000  1
  Mo  Mo4  1  4.04472000  7.55623000  3.79046000  1
  Mo  Mo5  1  6.03954000  2.30306000  0.25839100  1
  Mo  Mo6  1  6.05375000  0.54332200  2.03237000  1
  Mo  Mo7  1  4.04336000  2.28094000  2.01115000  1
  Mo  Mo8  1  8.05019000  4.04135000  0.28336500  1
  Mo  Mo9  1  2.04619000  5.81222000  0.26471900  1
  Mo  Mo10  1  2.05983000  4.05399000  2.02793000  1
  Mo  Mo11  1  0.05423640  5.79439000  2.02367000  1
  Mo  Mo12  1  4.05861000  4.04624000  0.27892700  1
  Mo  Mo13  1  6.05049000  5.81076000  3.77047000  1
  Mo  Mo14  1  6.04842000  4.05527000  2.02654000  1
  Mo  Mo15  1  4.04652000  5.80246000  2.01109000  1
