# generated using pymatgen
data_Mo
_symmetry_space_group_name_H-M   'P 1'
_cell_length_a   7.85157037
_cell_length_b   7.07093447
_cell_length_c   3.53566766
_cell_angle_alpha   90.00000000
_cell_angle_beta   90.00000000
_cell_angle_gamma   90.00000000
_symmetry_Int_Tables_number   1
_chemical_formula_structural   Mo
_chemical_formula_sum   Mo16
_cell_volume   196.29298345
_cell_formula_units_Z   16
loop_
 _symmetry_equiv_pos_site_id
 _symmetry_equiv_pos_as_xyz
  1  'x, y, z'
loop_
 _atom_site_type_symbol
 _atom_site_label
 _atom_site_symmetry_multiplicity
 _atom_site_fract_x
 _atom_site_fract_y
 _atom_site_fract_z
 _atom_site_occupancy
  Mo  Mo0  1  0.12878200  7.58261000  3.80327000  1
  Mo  Mo1  1  2.08757000  2.27386000  0.25326000  1
  Mo  Mo2  1  2.09274000  0.52158400  2.02778000  1
  Mo  Mo3  1  0.12392900  2.28149000  2.02957000  1
  Mo  Mo4  1  4.06783000  7.58569000  3.79109000  1
  Mo  Mo5  1  6.03033000  2.28346000  0.25034700  1
  Mo  Mo6  1  6.01830000  0.51289400  2.02167000  1
  Mo  Mo7  1  4.05116000  2.29046000  2.02353000  1
  Mo  Mo8  1  7.95974000  4.05549000  0.24828200  1
  Mo  Mo9  1  2.08355000  5.81250000  0.26524700  1
  Mo  Mo10  1  2.07742000  4.05209000  2.02351000  1
  Mo  Mo11  1  0.11846100  5.82077000  2.03789000  1
  Mo  Mo12  1  4.04227000  4.04772000  0.23582600  1
  Mo  Mo13  1  6.01379000  5.81712000  3.80039000  1
  Mo  Mo14  1  6.01128000  4.04903000  2.01756000  1
  Mo  Mo15  1  4.04128000  5.81322000  2.03512000  1
