# generated using pymatgen
data_Mo
_symmetry_space_group_name_H-M   'P 1'
_cell_length_a   7.32027188
_cell_length_b   7.26031828
_cell_length_c   3.63066006
_cell_angle_alpha   90.00000000
_cell_angle_beta   90.00000000
_cell_angle_gamma   90.00000000
_symmetry_Int_Tables_number   1
_chemical_formula_structural   Mo
_chemical_formula_sum   Mo16
_cell_volume   192.96051895
_cell_formula_units_Z   16
loop_
 _symmetry_equiv_pos_site_id
 _symmetry_equiv_pos_as_xyz
  1  'x, y, z'
loop_
 _atom_site_type_symbol
 _atom_site_label
 _atom_site_symmetry_multiplicity
 _atom_site_fract_x
 _atom_site_fract_y
 _atom_site_fract_z
 _atom_site_occupancy
  Mo  Mo0  1  0.39759500  7.69053000  3.84690000  1
  Mo  Mo1  1  2.22103000  2.23466000  0.21496900  1
  Mo  Mo2  1  2.22896000  0.41084000  2.02855000  1
  Mo  Mo3  1  0.38783500  2.23857000  2.02651000  1
  Mo  Mo4  1  4.05525000  7.68622000  3.83774000  1
  Mo  Mo5  1  5.88370000  2.23580000  0.20826400  1
  Mo  Mo6  1  5.90367000  0.41017900  2.02359000  1
  Mo  Mo7  1  4.06079000  2.24097000  2.01237000  1
  Mo  Mo8  1  7.70042000  4.05405000  0.22808400  1
  Mo  Mo9  1  2.21121000  5.85763000  0.19973800  1
  Mo  Mo10  1  2.21210000  4.04257000  2.04163000  1
  Mo  Mo11  1  0.37746600  5.87261000  2.00913000  1
  Mo  Mo12  1  4.03560000  4.05671000  0.21901500  1
  Mo  Mo13  1  5.87340000  5.85718000  3.83037000  1
  Mo  Mo14  1  5.88024000  4.04433000  2.03760000  1
  Mo  Mo15  1  4.05049000  5.86715000  2.00487000  1
