# generated using pymatgen
data_Mo
_symmetry_space_group_name_H-M   'P 1'
_cell_length_a   8.28097571
_cell_length_b   6.93978822
_cell_length_c   3.47069907
_cell_angle_alpha   90.00000000
_cell_angle_beta   90.00000000
_cell_angle_gamma   90.00000000
_symmetry_Int_Tables_number   1
_chemical_formula_structural   Mo
_chemical_formula_sum   Mo16
_cell_volume   199.45488994
_cell_formula_units_Z   16
loop_
 _symmetry_equiv_pos_site_id
 _symmetry_equiv_pos_as_xyz
  1  'x, y, z'
loop_
 _atom_site_type_symbol
 _atom_site_label
 _atom_site_symmetry_multiplicity
 _atom_site_fract_x
 _atom_site_fract_y
 _atom_site_fract_z
 _atom_site_occupancy
  Mo  Mo0  1  1.97960000  2.31907000  0.27754900  1
  Mo  Mo1  1  1.97827000  0.58745800  2.03089000  1
  Mo  Mo2  1  -0.09447930  2.30532000  2.01106000  1
  Mo  Mo3  1  4.04136000  7.51897000  3.77319000  1
  Mo  Mo4  1  4.04510000  2.30729000  2.02327000  1
  Mo  Mo5  1  -0.08407990  4.04871000  3.75844000  1
  Mo  Mo6  1  1.98681000  5.79113000  0.28764600  1
  Mo  Mo7  1  1.99104000  4.05866000  2.01917000  1
  Mo  Mo8  1  -0.08249530  5.77573000  2.02180000  1
  Mo  Mo9  1  4.04903000  4.04087000  0.29281700  1
  Mo  Mo10  1  4.05210000  5.77911000  2.03432000  1
  Mo  Mo11  1  8.18637000  7.51177000  3.76853000  1
  Mo  Mo12  1  6.11357000  2.32623000  0.28334100  1
  Mo  Mo13  1  6.10179000  0.58098300  2.03296000  1
  Mo  Mo14  1  6.11980000  5.79564000  0.29358400  1
  Mo  Mo15  1  6.13523000  4.05305000  2.02073000  1
