# generated using pymatgen
data_Mo
_symmetry_space_group_name_H-M   'P 1'
_cell_length_a   7.55462518
_cell_length_b   7.17192188
_cell_length_c   3.58487630
_cell_angle_alpha   90.00000000
_cell_angle_beta   90.00000000
_cell_angle_gamma   90.00000000
_symmetry_Int_Tables_number   1
_chemical_formula_structural   Mo
_chemical_formula_sum   Mo16
_cell_volume   194.23283391
_cell_formula_units_Z   16
loop_
 _symmetry_equiv_pos_site_id
 _symmetry_equiv_pos_as_xyz
  1  'x, y, z'
loop_
 _atom_site_type_symbol
 _atom_site_label
 _atom_site_symmetry_multiplicity
 _atom_site_fract_x
 _atom_site_fract_y
 _atom_site_fract_z
 _atom_site_occupancy
  Mo  Mo0  1  0.28596100  7.64871000  3.82396000  1
  Mo  Mo1  1  2.16309000  2.26026000  0.22882900  1
  Mo  Mo2  1  2.15880000  0.45014400  2.03717000  1
  Mo  Mo3  1  0.27747900  2.26271000  2.01499000  1
  Mo  Mo4  1  4.05808000  7.64028000  3.82269000  1
  Mo  Mo5  1  5.93616000  2.25134000  0.22540400  1
  Mo  Mo6  1  5.95001000  0.45914000  2.03745000  1
  Mo  Mo7  1  4.05161000  2.25582000  2.00912000  1
  Mo  Mo8  1  7.82168000  4.05120000  0.24222800  1
  Mo  Mo9  1  2.15167000  5.83793000  0.23045600  1
  Mo  Mo10  1  2.16252000  4.04162000  2.03010000  1
  Mo  Mo11  1  0.26734000  5.84666000  2.01928000  1
  Mo  Mo12  1  4.04777000  4.06103000  0.24116800  1
  Mo  Mo13  1  5.93459000  5.83817000  3.81071000  1
  Mo  Mo14  1  5.92774000  4.04350000  2.03012000  1
  Mo  Mo15  1  4.05087000  5.85149000  2.01143000  1
