# generated using pymatgen
data_Mo
_symmetry_space_group_name_H-M   'P 1'
_cell_length_a   8.62450039
_cell_length_b   6.84327745
_cell_length_c   3.42101550
_cell_angle_alpha   90.00000000
_cell_angle_beta   90.00000000
_cell_angle_gamma   90.00000000
_symmetry_Int_Tables_number   1
_chemical_formula_structural   Mo
_chemical_formula_sum   Mo16
_cell_volume   201.90781864
_cell_formula_units_Z   16
loop_
 _symmetry_equiv_pos_site_id
 _symmetry_equiv_pos_as_xyz
  1  'x, y, z'
loop_
 _atom_site_type_symbol
 _atom_site_label
 _atom_site_symmetry_multiplicity
 _atom_site_fract_x
 _atom_site_fract_y
 _atom_site_fract_z
 _atom_site_occupancy
  Mo  Mo0  1  1.89289000  2.34004000  0.31361200  1
  Mo  Mo1  1  1.88756000  0.62932900  2.02796000  1
  Mo  Mo2  1  -0.26896100  2.33037000  2.03079000  1
  Mo  Mo3  1  4.04830000  7.46955000  3.73462000  1
  Mo  Mo4  1  4.04511000  2.33937000  2.01640000  1
  Mo  Mo5  1  -0.25977900  4.04878000  3.75091000  1
  Mo  Mo6  1  1.90253000  5.77348000  0.30101500  1
  Mo  Mo7  1  1.89900000  4.04555000  2.03673000  1
  Mo  Mo8  1  -0.26020700  5.76619000  2.01742000  1
  Mo  Mo9  1  4.05206000  4.04705000  0.32404200  1
  Mo  Mo10  1  4.04694000  5.75203000  2.01074000  1
  Mo  Mo11  1  8.35166000  7.46617000  3.74034000  1
  Mo  Mo12  1  6.21556000  2.34125000  0.30965100  1
  Mo  Mo13  1  6.19621000  0.62897300  2.02586000  1
  Mo  Mo14  1  6.20925000  5.76828000  0.30244600  1
  Mo  Mo15  1  6.21740000  4.05360000  2.03645000  1
