# generated using pymatgen
data_Mo
_symmetry_space_group_name_H-M   'P 1'
_cell_length_a   7.48621142
_cell_length_b   7.19433340
_cell_length_c   3.59848475
_cell_angle_alpha   90.00000000
_cell_angle_beta   90.00000000
_cell_angle_gamma   90.00000000
_symmetry_Int_Tables_number   1
_chemical_formula_structural   Mo
_chemical_formula_sum   Mo16
_cell_volume   193.80827464
_cell_formula_units_Z   16
loop_
 _symmetry_equiv_pos_site_id
 _symmetry_equiv_pos_as_xyz
  1  'x, y, z'
loop_
 _atom_site_type_symbol
 _atom_site_label
 _atom_site_symmetry_multiplicity
 _atom_site_fract_x
 _atom_site_fract_y
 _atom_site_fract_z
 _atom_site_occupancy
  Mo  Mo0  1  0.30247400  7.63724000  3.81642000  1
  Mo  Mo1  1  2.17318000  2.26105000  0.22353800  1
  Mo  Mo2  1  2.16684000  0.45829300  2.02756000  1
  Mo  Mo3  1  0.29633500  2.24201000  2.02618000  1
  Mo  Mo4  1  4.04367000  7.64488000  3.82600000  1
  Mo  Mo5  1  5.92396000  2.25787000  0.22238800  1
  Mo  Mo6  1  5.91418000  0.46104900  2.03230000  1
  Mo  Mo7  1  4.05406000  2.25053000  2.02636000  1
  Mo  Mo8  1  7.79787000  4.04296000  0.21373500  1
  Mo  Mo9  1  2.18553000  5.85328000  0.23168700  1
  Mo  Mo10  1  2.18093000  4.05556000  2.00816000  1
  Mo  Mo11  1  0.30707200  5.84752000  2.03650000  1
  Mo  Mo12  1  4.04693000  4.03984000  0.22326600  1
  Mo  Mo13  1  5.92276000  5.84466000  3.83235000  1
  Mo  Mo14  1  5.93828000  4.06445000  2.01335000  1
  Mo  Mo15  1  4.05972000  5.83881000  2.04173000  1
