# generated using pymatgen
data_Mo
_symmetry_space_group_name_H-M   'P 1'
_cell_length_a   7.35520673
_cell_length_b   7.24495441
_cell_length_c   3.62385821
_cell_angle_alpha   90.00000000
_cell_angle_beta   90.00000000
_cell_angle_gamma   90.00000000
_symmetry_Int_Tables_number   1
_chemical_formula_structural   Mo
_chemical_formula_sum   Mo16
_cell_volume   193.10865439
_cell_formula_units_Z   16
loop_
 _symmetry_equiv_pos_site_id
 _symmetry_equiv_pos_as_xyz
  1  'x, y, z'
loop_
 _atom_site_type_symbol
 _atom_site_label
 _atom_site_symmetry_multiplicity
 _atom_site_fract_x
 _atom_site_fract_y
 _atom_site_fract_z
 _atom_site_occupancy
  Mo  Mo0  1  0.38619700  7.66861000  3.83142000  1
  Mo  Mo1  1  2.22956000  2.24494000  0.22984300  1
  Mo  Mo2  1  2.21552000  0.43222500  2.01011000  1
  Mo  Mo3  1  0.37524000  2.23900000  2.04381000  1
  Mo  Mo4  1  4.04760000  7.66246000  3.82250000  1
  Mo  Mo5  1  5.89043000  2.24241000  0.22311200  1
  Mo  Mo6  1  5.89953000  0.43557000  2.00622000  1
  Mo  Mo7  1  4.05571000  2.22447000  2.03213000  1
  Mo  Mo8  1  7.72050000  4.03915000  0.21793500  1
  Mo  Mo9  1  2.21194000  5.86172000  0.21502500  1
  Mo  Mo10  1  2.20099000  4.06195000  2.02365000  1
  Mo  Mo11  1  0.36168900  5.85439000  2.02679000  1
  Mo  Mo12  1  4.03649000  4.04136000  0.20898400  1
  Mo  Mo13  1  5.88974000  5.86862000  3.83884000  1
  Mo  Mo14  1  5.87448000  4.05505000  2.02063000  1
  Mo  Mo15  1  4.04918000  5.86806000  2.02514000  1
