# generated using pymatgen
data_Mo
_symmetry_space_group_name_H-M   'P 1'
_cell_length_a   7.39741933
_cell_length_b   7.23005924
_cell_length_c   3.61464429
_cell_angle_alpha   90.00000000
_cell_angle_beta   90.00000000
_cell_angle_gamma   90.00000000
_symmetry_Int_Tables_number   1
_chemical_formula_structural   Mo
_chemical_formula_sum   Mo16
_cell_volume   193.32483985
_cell_formula_units_Z   16
loop_
 _symmetry_equiv_pos_site_id
 _symmetry_equiv_pos_as_xyz
  1  'x, y, z'
loop_
 _atom_site_type_symbol
 _atom_site_label
 _atom_site_symmetry_multiplicity
 _atom_site_fract_x
 _atom_site_fract_y
 _atom_site_fract_z
 _atom_site_occupancy
  Mo  Mo0  1  0.36125600  7.67147000  3.83650000  1
  Mo  Mo1  1  2.20335000  2.24167000  0.21990900  1
  Mo  Mo2  1  2.21534000  0.42229900  2.03156000  1
  Mo  Mo3  1  0.35511100  2.25462000  2.02024000  1
  Mo  Mo4  1  4.06060000  7.67299000  3.82960000  1
  Mo  Mo5  1  5.90069000  2.23607000  0.21746000  1
  Mo  Mo6  1  5.91198000  0.43006300  2.02975000  1
  Mo  Mo7  1  4.05186000  2.24323000  2.01388000  1
  Mo  Mo8  1  7.73255000  4.06043000  0.23884100  1
  Mo  Mo9  1  2.18851000  5.85341000  0.21082000  1
  Mo  Mo10  1  2.19940000  4.03951000  2.03839000  1
  Mo  Mo11  1  0.34546100  5.85749000  2.01499000  1
  Mo  Mo12  1  4.03920000  4.05803000  0.23199300  1
  Mo  Mo13  1  5.89390000  5.85278000  3.81657000  1
  Mo  Mo14  1  5.89960000  4.04025000  2.03577000  1
  Mo  Mo15  1  4.04378000  5.86569000  1.99906000  1
