# generated using pymatgen
data_Mo
_symmetry_space_group_name_H-M   'P 1'
_cell_length_a   7.30571586
_cell_length_b   7.26641893
_cell_length_c   3.63302255
_cell_angle_alpha   90.00000000
_cell_angle_beta   90.00000000
_cell_angle_gamma   90.00000000
_symmetry_Int_Tables_number   1
_chemical_formula_structural   Mo
_chemical_formula_sum   Mo16
_cell_volume   192.86405922
_cell_formula_units_Z   16
loop_
 _symmetry_equiv_pos_site_id
 _symmetry_equiv_pos_as_xyz
  1  'x, y, z'
loop_
 _atom_site_type_symbol
 _atom_site_label
 _atom_site_symmetry_multiplicity
 _atom_site_fract_x
 _atom_site_fract_y
 _atom_site_fract_z
 _atom_site_occupancy
  Mo  Mo0  1  0.39598400  7.67429000  3.82895000  1
  Mo  Mo1  1  2.23113000  2.23921000  0.20964300  1
  Mo  Mo2  1  2.21167000  0.42156100  2.02021000  1
  Mo  Mo3  1  0.40155000  2.23658000  2.02766000  1
  Mo  Mo4  1  4.04844000  7.67287000  3.83915000  1
  Mo  Mo5  1  5.87238000  2.22849000  0.21349100  1
  Mo  Mo6  1  5.85672000  0.43215900  2.02574000  1
  Mo  Mo7  1  4.03783000  2.21999000  2.03604000  1
  Mo  Mo8  1  7.70234000  4.04054000  0.19532800  1
  Mo  Mo9  1  2.22665000  5.87574000  0.21875100  1
  Mo  Mo10  1  2.23555000  4.05829000  2.00471000  1
  Mo  Mo11  1  0.40638700  5.85384000  2.04146000  1
  Mo  Mo12  1  4.05860000  4.04539000  0.20556600  1
  Mo  Mo13  1  5.88672000  5.87443000  3.84981000  1
  Mo  Mo14  1  5.87323000  4.05711000  2.00942000  1
  Mo  Mo15  1  4.04910000  5.86951000  2.04105000  1
