# generated using pymatgen
data_Mo
_symmetry_space_group_name_H-M   'P 1'
_cell_length_a   7.86612639
_cell_length_b   7.06634349
_cell_length_c   3.53337073
_cell_angle_alpha   90.00000000
_cell_angle_beta   90.00000000
_cell_angle_gamma   90.00000000
_symmetry_Int_Tables_number   1
_chemical_formula_structural   Mo
_chemical_formula_sum   Mo16
_cell_volume   196.40153228
_cell_formula_units_Z   16
loop_
 _symmetry_equiv_pos_site_id
 _symmetry_equiv_pos_as_xyz
  1  'x, y, z'
loop_
 _atom_site_type_symbol
 _atom_site_label
 _atom_site_symmetry_multiplicity
 _atom_site_fract_x
 _atom_site_fract_y
 _atom_site_fract_z
 _atom_site_occupancy
  Mo  Mo0  1  0.11551100  7.58614000  3.78804000  1
  Mo  Mo1  1  2.08835000  2.29306000  0.25578100  1
  Mo  Mo2  1  2.08239000  0.51430800  2.02297000  1
  Mo  Mo3  1  0.11890000  2.27785000  2.02076000  1
  Mo  Mo4  1  4.03247000  7.57935000  3.79836000  1
  Mo  Mo5  1  6.00618000  2.28468000  0.25774900  1
  Mo  Mo6  1  6.02358000  0.52069400  2.02867000  1
  Mo  Mo7  1  4.04820000  2.27290000  2.02694000  1
  Mo  Mo8  1  7.99186000  4.04184000  0.26582600  1
  Mo  Mo9  1  2.08997000  5.82266000  0.24460900  1
  Mo  Mo10  1  2.09258000  4.05241000  2.03423000  1
  Mo  Mo11  1  0.11550600  5.81007000  2.00961000  1
  Mo  Mo12  1  4.05081000  4.05155000  0.27632100  1
  Mo  Mo13  1  6.01447000  5.82330000  3.78018000  1
  Mo  Mo14  1  6.00874000  4.05251000  2.04000000  1
  Mo  Mo15  1  4.05435000  5.81668000  2.01659000  1
