# generated using pymatgen
data_Mo
_symmetry_space_group_name_H-M   'P 1'
_cell_length_a   7.30134901
_cell_length_b   7.26775792
_cell_length_c   3.63435149
_cell_angle_alpha   90.00000000
_cell_angle_beta   90.00000000
_cell_angle_gamma   90.00000000
_symmetry_Int_Tables_number   1
_chemical_formula_structural   Mo
_chemical_formula_sum   Mo16
_cell_volume   192.85481629
_cell_formula_units_Z   16
loop_
 _symmetry_equiv_pos_site_id
 _symmetry_equiv_pos_as_xyz
  1  'x, y, z'
loop_
 _atom_site_type_symbol
 _atom_site_label
 _atom_site_symmetry_multiplicity
 _atom_site_fract_x
 _atom_site_fract_y
 _atom_site_fract_z
 _atom_site_occupancy
  Mo  Mo0  1  0.39239700  7.67480000  3.83491000  1
  Mo  Mo1  1  2.23082000  2.23728000  0.20926900  1
  Mo  Mo2  1  2.21424000  0.41867800  2.02372000  1
  Mo  Mo3  1  0.39984000  2.23515000  2.02130000  1
  Mo  Mo4  1  4.03953000  7.67604000  3.84746000  1
  Mo  Mo5  1  5.87084000  2.22685000  0.21026500  1
  Mo  Mo6  1  5.85612000  0.42869200  2.02911000  1
  Mo  Mo7  1  4.03625000  2.22335000  2.02495000  1
  Mo  Mo8  1  7.70219000  4.04222000  0.19515800  1
  Mo  Mo9  1  2.23366000  5.87632000  0.21872800  1
  Mo  Mo10  1  2.24368000  4.05405000  2.00350000  1
  Mo  Mo11  1  0.40890300  5.86036000  2.03288000  1
  Mo  Mo12  1  4.05541000  4.04631000  0.20781000  1
  Mo  Mo13  1  5.88495000  5.87376000  3.85675000  1
  Mo  Mo14  1  5.87927000  4.05496000  2.00926000  1
  Mo  Mo15  1  4.05055000  5.87120000  2.04057000  1
