# generated using pymatgen
data_Mo
_symmetry_space_group_name_H-M   'P 1'
_cell_length_a   8.27515293
_cell_length_b   6.94439179
_cell_length_c   3.47022462
_cell_angle_alpha   90.00000000
_cell_angle_beta   90.00000000
_cell_angle_gamma   90.00000000
_symmetry_Int_Tables_number   1
_chemical_formula_structural   Mo
_chemical_formula_sum   Mo16
_cell_volume   199.41959494
_cell_formula_units_Z   16
loop_
 _symmetry_equiv_pos_site_id
 _symmetry_equiv_pos_as_xyz
  1  'x, y, z'
loop_
 _atom_site_type_symbol
 _atom_site_label
 _atom_site_symmetry_multiplicity
 _atom_site_fract_x
 _atom_site_fract_y
 _atom_site_fract_z
 _atom_site_occupancy
  Mo  Mo0  1  1.97875000  2.30586000  0.29140000  1
  Mo  Mo1  1  1.99537000  0.58231800  2.02572000  1
  Mo  Mo2  1  -0.09236410  2.30799000  2.02503000  1
  Mo  Mo3  1  4.04130000  7.52448000  3.75071000  1
  Mo  Mo4  1  4.05395000  2.31798000  2.03493000  1
  Mo  Mo5  1  -0.07927170  4.05355000  3.74936000  1
  Mo  Mo6  1  1.98454000  5.79022000  0.29981800  1
  Mo  Mo7  1  1.98140000  4.04921000  2.01186000  1
  Mo  Mo8  1  -0.09002760  5.79063000  2.03883000  1
  Mo  Mo9  1  4.04364000  4.04668000  0.28306300  1
  Mo  Mo10  1  4.04890000  5.78390000  2.03629000  1
  Mo  Mo11  1  8.18687000  7.51728000  3.74693000  1
  Mo  Mo12  1  6.11253000  2.30947000  0.29612900  1
  Mo  Mo13  1  6.12421000  0.58000300  2.02941000  1
  Mo  Mo14  1  6.10876000  5.78634000  0.29630400  1
  Mo  Mo15  1  6.12627000  4.05409000  2.01399000  1
