# generated using pymatgen
data_Mo
_symmetry_space_group_name_H-M   'P 1'
_cell_length_a   8.00004249
_cell_length_b   7.02478349
_cell_length_c   3.51264119
_cell_angle_alpha   90.00000000
_cell_angle_beta   90.00000000
_cell_angle_gamma   90.00000000
_symmetry_Int_Tables_number   1
_chemical_formula_structural   Mo
_chemical_formula_sum   Mo16
_cell_volume   197.40539923
_cell_formula_units_Z   16
loop_
 _symmetry_equiv_pos_site_id
 _symmetry_equiv_pos_as_xyz
  1  'x, y, z'
loop_
 _atom_site_type_symbol
 _atom_site_label
 _atom_site_symmetry_multiplicity
 _atom_site_fract_x
 _atom_site_fract_y
 _atom_site_fract_z
 _atom_site_occupancy
  Mo  Mo0  1  0.06133840  7.56145000  3.79201000  1
  Mo  Mo1  1  2.05110000  2.29770000  0.27032400  1
  Mo  Mo2  1  2.05600000  0.54324400  2.02139000  1
  Mo  Mo3  1  0.05719920  2.28901000  2.03232000  1
  Mo  Mo4  1  4.05352000  7.55373000  3.78072000  1
  Mo  Mo5  1  6.04101000  2.30079000  0.26442500  1
  Mo  Mo6  1  6.05563000  0.54027500  2.01673000  1
  Mo  Mo7  1  4.05192000  2.29158000  2.02189000  1
  Mo  Mo8  1  8.04817000  4.04398000  0.27928000  1
  Mo  Mo9  1  2.04526000  5.80814000  0.26256400  1
  Mo  Mo10  1  2.05710000  4.05403000  2.03451000  1
  Mo  Mo11  1  0.05167120  5.80337000  2.02063000  1
  Mo  Mo12  1  4.04074000  4.04715000  0.26865800  1
  Mo  Mo13  1  6.03575000  5.81176000  3.77374000  1
  Mo  Mo14  1  6.04385000  4.05224000  2.03068000  1
  Mo  Mo15  1  4.04970000  5.80155000  2.01749000  1
