# generated using pymatgen
data_Mo
_symmetry_space_group_name_H-M   'P 1'
_cell_length_a   8.55899803
_cell_length_b   6.84170187
_cell_length_c   3.43891501
_cell_angle_alpha   90.00000000
_cell_angle_beta   90.00000000
_cell_angle_gamma   90.00000000
_symmetry_Int_Tables_number   1
_chemical_formula_structural   Mo
_chemical_formula_sum   Mo16
_cell_volume   201.37637335
_cell_formula_units_Z   16
loop_
 _symmetry_equiv_pos_site_id
 _symmetry_equiv_pos_as_xyz
  1  'x, y, z'
loop_
 _atom_site_type_symbol
 _atom_site_label
 _atom_site_symmetry_multiplicity
 _atom_site_fract_x
 _atom_site_fract_y
 _atom_site_fract_z
 _atom_site_occupancy
  Mo  Mo0  1  1.90726000  2.34106000  0.29744200  1
  Mo  Mo1  1  1.91965000  0.62866300  2.02556000  1
  Mo  Mo2  1  -0.23163900  2.34251000  2.01015000  1
  Mo  Mo3  1  4.05730000  7.47485000  3.76141000  1
  Mo  Mo4  1  4.05268000  2.34331000  2.02253000  1
  Mo  Mo5  1  -0.23588400  4.05407000  3.74335000  1
  Mo  Mo6  1  1.90850000  5.76174000  0.30306800  1
  Mo  Mo7  1  1.90342000  4.04638000  2.03370000  1
  Mo  Mo8  1  -0.23223200  5.75895000  2.01399000  1
  Mo  Mo9  1  4.04346000  4.04828000  0.31228000  1
  Mo  Mo10  1  4.04674000  5.75738000  2.01753000  1
  Mo  Mo11  1  8.33124000  7.46666000  3.75331000  1
  Mo  Mo12  1  6.19328000  2.34308000  0.30305800  1
  Mo  Mo13  1  6.19413000  0.62655700  2.02697000  1
  Mo  Mo14  1  6.18717000  5.76103000  0.30314800  1
  Mo  Mo15  1  6.19595000  4.04548000  2.03359000  1
