# generated using pymatgen
data_Mo
_symmetry_space_group_name_H-M   'P 1'
_cell_length_a   8.56627533
_cell_length_b   6.87896961
_cell_length_c   3.41878986
_cell_angle_alpha   90.00000000
_cell_angle_beta   90.00000000
_cell_angle_gamma   90.00000000
_symmetry_Int_Tables_number   1
_chemical_formula_structural   Mo
_chemical_formula_sum   Mo16
_cell_volume   201.45953509
_cell_formula_units_Z   16
loop_
 _symmetry_equiv_pos_site_id
 _symmetry_equiv_pos_as_xyz
  1  'x, y, z'
loop_
 _atom_site_type_symbol
 _atom_site_label
 _atom_site_symmetry_multiplicity
 _atom_site_fract_x
 _atom_site_fract_y
 _atom_site_fract_z
 _atom_site_occupancy
  Mo  Mo0  1  1.90604000  2.33583000  0.32659000  1
  Mo  Mo1  1  1.91070000  0.61625500  2.01353000  1
  Mo  Mo2  1  -0.23217100  2.32948000  2.04315000  1
  Mo  Mo3  1  4.06315000  7.48050000  3.72412000  1
  Mo  Mo4  1  4.06236000  2.31936000  2.03594000  1
  Mo  Mo5  1  -0.24490600  4.04133000  3.73297000  1
  Mo  Mo6  1  1.89108000  5.77996000  0.31224200  1
  Mo  Mo7  1  1.90092000  4.05764000  2.02053000  1
  Mo  Mo8  1  -0.24087100  5.76251000  2.02789000  1
  Mo  Mo9  1  4.03640000  4.04126000  0.31845400  1
  Mo  Mo10  1  4.05825000  5.76957000  2.03166000  1
  Mo  Mo11  1  8.35207000  7.48026000  3.71950000  1
  Mo  Mo12  1  6.18771000  2.32747000  0.32101300  1
  Mo  Mo13  1  6.20655000  0.62359700  2.01587000  1
  Mo  Mo14  1  6.18124000  5.77585000  0.31429000  1
  Mo  Mo15  1  6.19520000  4.05912000  2.02347000  1
