# generated using pymatgen
data_Mo
_symmetry_space_group_name_H-M   'P 1'
_cell_length_a   7.42944279
_cell_length_b   7.21844608
_cell_length_c   3.60821366
_cell_angle_alpha   90.00000000
_cell_angle_beta   90.00000000
_cell_angle_gamma   90.00000000
_symmetry_Int_Tables_number   1
_chemical_formula_structural   Mo
_chemical_formula_sum   Mo16
_cell_volume   193.50500664
_cell_formula_units_Z   16
loop_
 _symmetry_equiv_pos_site_id
 _symmetry_equiv_pos_as_xyz
  1  'x, y, z'
loop_
 _atom_site_type_symbol
 _atom_site_label
 _atom_site_symmetry_multiplicity
 _atom_site_fract_x
 _atom_site_fract_y
 _atom_site_fract_z
 _atom_site_occupancy
  Mo  Mo0  1  0.33142800  7.65709000  3.83393000  1
  Mo  Mo1  1  2.18613000  2.24233000  0.22330800  1
  Mo  Mo2  1  2.20815000  0.44677500  2.02227000  1
  Mo  Mo3  1  0.33751200  2.24145000  2.03008000  1
  Mo  Mo4  1  4.05623000  7.66057000  3.82413000  1
  Mo  Mo5  1  5.91554000  2.25358000  0.22208500  1
  Mo  Mo6  1  5.92013000  0.43588900  2.01706000  1
  Mo  Mo7  1  4.05924000  2.25278000  2.02646000  1
  Mo  Mo8  1  7.75882000  4.05493000  0.22861100  1
  Mo  Mo9  1  2.18714000  5.85156000  0.21352600  1
  Mo  Mo10  1  2.17821000  4.05044000  2.04157000  1
  Mo  Mo11  1  0.33193800  5.85719000  2.01657000  1
  Mo  Mo12  1  4.04530000  4.04693000  0.21889800  1
  Mo  Mo13  1  5.90232000  5.85301000  3.82183000  1
  Mo  Mo14  1  5.90636000  4.04918000  2.03652000  1
  Mo  Mo15  1  4.04610000  5.84629000  2.01494000  1
