# generated using pymatgen
data_Mo
_symmetry_space_group_name_H-M   'P 1'
_cell_length_a   7.86321499
_cell_length_b   7.06763482
_cell_length_c   3.53355765
_cell_angle_alpha   90.00000000
_cell_angle_beta   90.00000000
_cell_angle_gamma   90.00000000
_symmetry_Int_Tables_number   1
_chemical_formula_structural   Mo
_chemical_formula_sum   Mo16
_cell_volume   196.37510646
_cell_formula_units_Z   16
loop_
 _symmetry_equiv_pos_site_id
 _symmetry_equiv_pos_as_xyz
  1  'x, y, z'
loop_
 _atom_site_type_symbol
 _atom_site_label
 _atom_site_symmetry_multiplicity
 _atom_site_fract_x
 _atom_site_fract_y
 _atom_site_fract_z
 _atom_site_occupancy
  Mo  Mo0  1  0.12068000  7.58649000  3.78205000  1
  Mo  Mo1  1  2.08446000  2.28959000  0.26210800  1
  Mo  Mo2  1  2.09114000  0.50827300  2.02263000  1
  Mo  Mo3  1  0.12453800  2.28862000  2.02068000  1
  Mo  Mo4  1  4.04334000  7.58490000  3.79194000  1
  Mo  Mo5  1  6.00555000  2.27924000  0.26531300  1
  Mo  Mo6  1  6.02550000  0.51815100  2.02806000  1
  Mo  Mo7  1  4.05176000  2.27953000  2.02675000  1
  Mo  Mo8  1  7.98421000  4.04704000  0.26253500  1
  Mo  Mo9  1  2.08004000  5.81903000  0.25608000  1
  Mo  Mo10  1  2.08628000  4.04613000  2.02394000  1
  Mo  Mo11  1  0.11809700  5.81285000  2.01856000  1
  Mo  Mo12  1  4.05106000  4.05356000  0.27262300  1
  Mo  Mo13  1  6.00966000  5.81648000  3.78750000  1
  Mo  Mo14  1  6.00878000  4.04896000  2.02863000  1
  Mo  Mo15  1  4.05168000  5.82115000  2.01705000  1
