# generated using pymatgen
data_Mo
_symmetry_space_group_name_H-M   'P 1'
_cell_length_a   8.24458542
_cell_length_b   6.95096529
_cell_length_c   3.47601223
_cell_angle_alpha   90.00000000
_cell_angle_beta   90.00000000
_cell_angle_gamma   90.00000000
_symmetry_Int_Tables_number   1
_chemical_formula_structural   Mo
_chemical_formula_sum   Mo16
_cell_volume   199.20270762
_cell_formula_units_Z   16
loop_
 _symmetry_equiv_pos_site_id
 _symmetry_equiv_pos_as_xyz
  1  'x, y, z'
loop_
 _atom_site_type_symbol
 _atom_site_label
 _atom_site_symmetry_multiplicity
 _atom_site_fract_x
 _atom_site_fract_y
 _atom_site_fract_z
 _atom_site_occupancy
  Mo  Mo0  1  1.97661000  2.30288000  0.28363100  1
  Mo  Mo1  1  1.97954000  0.57228900  2.02243000  1
  Mo  Mo2  1  -0.08292790  2.31443000  2.01404000  1
  Mo  Mo3  1  4.04270000  7.53073000  3.77486000  1
  Mo  Mo4  1  4.05042000  2.32417000  2.02459000  1
  Mo  Mo5  1  -0.06363520  4.05454000  3.74980000  1
  Mo  Mo6  1  1.99061000  5.78731000  0.29442100  1
  Mo  Mo7  1  1.99758000  4.04159000  2.02278000  1
  Mo  Mo8  1  -0.07442780  5.79909000  2.02284000  1
  Mo  Mo9  1  4.05523000  4.05414000  0.28344900  1
  Mo  Mo10  1  4.05818000  5.78934000  2.02739000  1
  Mo  Mo11  1  8.16520000  7.52567000  3.76488000  1
  Mo  Mo12  1  6.10938000  2.30341000  0.29002000  1
  Mo  Mo13  1  6.11282000  0.57035600  2.02606000  1
  Mo  Mo14  1  6.10887000  5.78405000  0.29685400  1
  Mo  Mo15  1  6.12925000  4.04599000  2.02595000  1
