# generated using pymatgen
data_Mo
_symmetry_space_group_name_H-M   'P 1'
_cell_length_a   7.38723019
_cell_length_b   7.23282573
_cell_length_c   3.61712146
_cell_angle_alpha   90.00000000
_cell_angle_beta   90.00000000
_cell_angle_gamma   90.00000000
_symmetry_Int_Tables_number   1
_chemical_formula_structural   Mo
_chemical_formula_sum   Mo16
_cell_volume   193.26478367
_cell_formula_units_Z   16
loop_
 _symmetry_equiv_pos_site_id
 _symmetry_equiv_pos_as_xyz
  1  'x, y, z'
loop_
 _atom_site_type_symbol
 _atom_site_label
 _atom_site_symmetry_multiplicity
 _atom_site_fract_x
 _atom_site_fract_y
 _atom_site_fract_z
 _atom_site_occupancy
  Mo  Mo0  1  0.36496400  7.66137000  3.82631000  1
  Mo  Mo1  1  2.20769000  2.24123000  0.22056300  1
  Mo  Mo2  1  2.20189000  0.44207500  2.01568000  1
  Mo  Mo3  1  0.35562800  2.22636000  2.03756000  1
  Mo  Mo4  1  4.04784000  7.66419000  3.82504000  1
  Mo  Mo5  1  5.89876000  2.24578000  0.22182000  1
  Mo  Mo6  1  5.89131000  0.43538300  2.01430000  1
  Mo  Mo7  1  4.05455000  2.24030000  2.03880000  1
  Mo  Mo8  1  7.75483000  4.04526000  0.21011100  1
  Mo  Mo9  1  2.21616000  5.86248000  0.21787800  1
  Mo  Mo10  1  2.19520000  4.05637000  2.02227000  1
  Mo  Mo11  1  0.35502700  5.86647000  2.03376000  1
  Mo  Mo12  1  4.04391000  4.04145000  0.20873900  1
  Mo  Mo13  1  5.88765000  5.86053000  3.83549000  1
  Mo  Mo14  1  5.88696000  4.05892000  2.02073000  1
  Mo  Mo15  1  4.05040000  5.85183000  2.03383000  1
