# generated using pymatgen
data_Mo
_symmetry_space_group_name_H-M   'P 1'
_cell_length_a   8.33919982
_cell_length_b   6.92311716
_cell_length_c   3.46155524
_cell_angle_alpha   90.00000000
_cell_angle_beta   90.00000000
_cell_angle_gamma   90.00000000
_symmetry_Int_Tables_number   1
_chemical_formula_structural   Mo
_chemical_formula_sum   Mo16
_cell_volume   199.84685972
_cell_formula_units_Z   16
loop_
 _symmetry_equiv_pos_site_id
 _symmetry_equiv_pos_as_xyz
  1  'x, y, z'
loop_
 _atom_site_type_symbol
 _atom_site_label
 _atom_site_symmetry_multiplicity
 _atom_site_fract_x
 _atom_site_fract_y
 _atom_site_fract_z
 _atom_site_occupancy
  Mo  Mo0  1  1.96455000  2.32354000  0.29719000  1
  Mo  Mo1  1  1.97099000  0.59580400  2.02778000  1
  Mo  Mo2  1  -0.11328500  2.31427000  2.03152000  1
  Mo  Mo3  1  4.06097000  7.50410000  3.75179000  1
  Mo  Mo4  1  4.05823000  2.32151000  2.01747000  1
  Mo  Mo5  1  -0.12859900  4.04360000  3.75720000  1
  Mo  Mo6  1  1.96019000  5.78187000  0.30125400  1
  Mo  Mo7  1  1.94587000  4.05605000  2.01232000  1
  Mo  Mo8  1  -0.12420200  5.77979000  2.03538000  1
  Mo  Mo9  1  4.04910000  4.04229000  0.28653100  1
  Mo  Mo10  1  4.04516000  5.77201000  2.03404000  1
  Mo  Mo11  1  8.21947000  7.50712000  3.76109000  1
  Mo  Mo12  1  6.14834000  2.32648000  0.28892900  1
  Mo  Mo13  1  6.14861000  0.59223100  2.02431000  1
  Mo  Mo14  1  6.13679000  5.78096000  0.30121900  1
  Mo  Mo15  1  6.11860000  4.05837000  2.01041000  1
