# generated using pymatgen
data_Mo
_symmetry_space_group_name_H-M   'P 1'
_cell_length_a   7.76568919
_cell_length_b   7.10011733
_cell_length_c   3.54861951
_cell_angle_alpha   90.00000000
_cell_angle_beta   90.00000000
_cell_angle_gamma   90.00000000
_symmetry_Int_Tables_number   1
_chemical_formula_structural   Mo
_chemical_formula_sum   Mo16
_cell_volume   195.66131403
_cell_formula_units_Z   16
loop_
 _symmetry_equiv_pos_site_id
 _symmetry_equiv_pos_as_xyz
  1  'x, y, z'
loop_
 _atom_site_type_symbol
 _atom_site_label
 _atom_site_symmetry_multiplicity
 _atom_site_fract_x
 _atom_site_fract_y
 _atom_site_fract_z
 _atom_site_occupancy
  Mo  Mo0  1  0.16141200  7.59294000  3.80990000  1
  Mo  Mo1  1  2.10986000  2.27654000  0.24920400  1
  Mo  Mo2  1  2.10286000  0.50562700  2.02559000  1
  Mo  Mo3  1  0.16182900  2.26892000  2.02272000  1
  Mo  Mo4  1  4.05128000  7.59915000  3.80510000  1
  Mo  Mo5  1  5.99847000  2.28410000  0.24651900  1
  Mo  Mo6  1  5.97370000  0.49842000  2.02207000  1
  Mo  Mo7  1  4.04472000  2.27086000  2.01796000  1
  Mo  Mo8  1  7.93306000  4.05212000  0.26759800  1
  Mo  Mo9  1  2.11587000  5.83318000  0.23561200  1
  Mo  Mo10  1  2.10856000  4.05356000  2.03983000  1
  Mo  Mo11  1  0.17163300  5.81894000  2.00492000  1
  Mo  Mo12  1  4.05301000  4.04265000  0.26294500  1
  Mo  Mo13  1  5.99998000  5.83621000  3.79037000  1
  Mo  Mo14  1  6.00028000  4.04887000  2.03760000  1
  Mo  Mo15  1  4.04779000  5.81791000  2.01344000  1
