# generated using pymatgen
data_Mo
_symmetry_space_group_name_H-M   'P 1'
_cell_length_a   8.69291365
_cell_length_b   6.81947726
_cell_length_c   3.41589236
_cell_angle_alpha   90.00000000
_cell_angle_beta   90.00000000
_cell_angle_gamma   90.00000000
_symmetry_Int_Tables_number   1
_chemical_formula_structural   Mo
_chemical_formula_sum   Mo16
_cell_volume   202.49794886
_cell_formula_units_Z   16
loop_
 _symmetry_equiv_pos_site_id
 _symmetry_equiv_pos_as_xyz
  1  'x, y, z'
loop_
 _atom_site_type_symbol
 _atom_site_label
 _atom_site_symmetry_multiplicity
 _atom_site_fract_x
 _atom_site_fract_y
 _atom_site_fract_z
 _atom_site_occupancy
  Mo  Mo0  1  1.88436000  2.35493000  0.31100600  1
  Mo  Mo1  1  1.89230000  0.64496200  2.03139000  1
  Mo  Mo2  1  -0.28816600  2.34088000  2.02028000  1
  Mo  Mo3  1  4.05051000  7.45972000  3.73803000  1
  Mo  Mo4  1  4.04618000  2.33762000  2.02572000  1
  Mo  Mo5  1  -0.29484500  4.04575000  3.73401000  1
  Mo  Mo6  1  1.88493000  5.75862000  0.31089900  1
  Mo  Mo7  1  1.86508000  4.05670000  2.02156000  1
  Mo  Mo8  1  -0.29176500  5.74404000  2.02392000  1
  Mo  Mo9  1  4.05173000  4.04387000  0.32949700  1
  Mo  Mo10  1  4.03786000  5.74876000  2.02892000  1
  Mo  Mo11  1  8.39154000  7.45370000  3.72685000  1
  Mo  Mo12  1  6.22561000  2.34987000  0.31128800  1
  Mo  Mo13  1  6.21840000  0.64869600  2.03538000  1
  Mo  Mo14  1  6.22872000  5.75193000  0.31013400  1
  Mo  Mo15  1  6.20463000  4.05995000  2.02521000  1
