# generated using pymatgen
data_Mo
_symmetry_space_group_name_H-M   'P 1'
_cell_length_a   8.47020547
_cell_length_b   6.89540499
_cell_length_c   3.43698955
_cell_angle_alpha   90.00000000
_cell_angle_beta   90.00000000
_cell_angle_gamma   90.00000000
_symmetry_Int_Tables_number   1
_chemical_formula_structural   Mo
_chemical_formula_sum   Mo16
_cell_volume   200.73908298
_cell_formula_units_Z   16
loop_
 _symmetry_equiv_pos_site_id
 _symmetry_equiv_pos_as_xyz
  1  'x, y, z'
loop_
 _atom_site_type_symbol
 _atom_site_label
 _atom_site_symmetry_multiplicity
 _atom_site_fract_x
 _atom_site_fract_y
 _atom_site_fract_z
 _atom_site_occupancy
  Mo  Mo0  1  1.93214000  2.32591000  0.29675700  1
  Mo  Mo1  1  1.92904000  0.60506200  2.03226000  1
  Mo  Mo2  1  -0.19177800  2.32814000  2.01722000  1
  Mo  Mo3  1  4.03289000  7.49406000  3.75076000  1
  Mo  Mo4  1  4.04356000  2.32346000  2.02408000  1
  Mo  Mo5  1  -0.17569400  4.04873000  3.74432000  1
  Mo  Mo6  1  1.93504000  5.76972000  0.29632200  1
  Mo  Mo7  1  1.95307000  4.05437000  2.03562000  1
  Mo  Mo8  1  -0.18575500  5.76376000  2.01369000  1
  Mo  Mo9  1  4.05194000  4.05510000  0.30923600  1
  Mo  Mo10  1  4.05512000  5.77421000  2.02584000  1
  Mo  Mo11  1  8.28064000  7.50037000  3.74903000  1
  Mo  Mo12  1  6.15285000  2.32989000  0.29898800  1
  Mo  Mo13  1  6.16892000  0.60216700  2.03146000  1
  Mo  Mo14  1  6.16695000  5.77869000  0.30172400  1
  Mo  Mo15  1  6.18088000  4.04637000  2.03570000  1
