# generated using pymatgen
data_Mo
_symmetry_space_group_name_H-M   'P 1'
_cell_length_a   8.61431122
_cell_length_b   6.85051596
_cell_length_c   3.42020965
_cell_angle_alpha   90.00000000
_cell_angle_beta   90.00000000
_cell_angle_gamma   90.00000000
_symmetry_Int_Tables_number   1
_chemical_formula_structural   Mo
_chemical_formula_sum   Mo16
_cell_volume   201.83504137
_cell_formula_units_Z   16
loop_
 _symmetry_equiv_pos_site_id
 _symmetry_equiv_pos_as_xyz
  1  'x, y, z'
loop_
 _atom_site_type_symbol
 _atom_site_label
 _atom_site_symmetry_multiplicity
 _atom_site_fract_x
 _atom_site_fract_y
 _atom_site_fract_z
 _atom_site_occupancy
  Mo  Mo0  1  1.90262000  2.32742000  0.32032900  1
  Mo  Mo1  1  1.89288000  0.62179900  2.02781000  1
  Mo  Mo2  1  -0.24962700  2.34940000  2.02551000  1
  Mo  Mo3  1  4.06773000  7.48198000  3.72594000  1
  Mo  Mo4  1  4.05216000  2.34036000  2.02329000  1
  Mo  Mo5  1  -0.27037700  4.05888000  3.72809000  1
  Mo  Mo6  1  1.88697000  5.74959000  0.32784300  1
  Mo  Mo7  1  1.88411000  4.04709000  2.01535000  1
  Mo  Mo8  1  -0.25641600  5.76337000  2.03462000  1
  Mo  Mo9  1  4.04856000  4.05598000  0.30080900  1
  Mo  Mo10  1  4.04638000  5.77399000  2.03271000  1
  Mo  Mo11  1  8.36458000  7.48421000  3.73323000  1
  Mo  Mo12  1  6.21167000  2.33037000  0.31889100  1
  Mo  Mo13  1  6.20072000  0.61996300  2.02542000  1
  Mo  Mo14  1  6.21086000  5.75393000  0.32664700  1
  Mo  Mo15  1  6.19288000  4.04168000  2.01329000  1
