# generated using pymatgen
data_Mo
_symmetry_space_group_name_H-M   'P 1'
_cell_length_a   7.95346302
_cell_length_b   7.03969681
_cell_length_c   3.51953292
_cell_angle_alpha   90.00000000
_cell_angle_beta   90.00000000
_cell_angle_gamma   90.00000000
_symmetry_Int_Tables_number   1
_chemical_formula_structural   Mo
_chemical_formula_sum   Mo16
_cell_volume   197.05853641
_cell_formula_units_Z   16
loop_
 _symmetry_equiv_pos_site_id
 _symmetry_equiv_pos_as_xyz
  1  'x, y, z'
loop_
 _atom_site_type_symbol
 _atom_site_label
 _atom_site_symmetry_multiplicity
 _atom_site_fract_x
 _atom_site_fract_y
 _atom_site_fract_z
 _atom_site_occupancy
  Mo  Mo0  1  0.06720940  7.57439000  3.78674000  1
  Mo  Mo1  1  2.06664000  2.28619000  0.26741100  1
  Mo  Mo2  1  2.04777000  0.52692400  2.02552000  1
  Mo  Mo3  1  0.06878000  2.29583000  2.02781000  1
  Mo  Mo4  1  4.03179000  7.56655000  3.78696000  1
  Mo  Mo5  1  6.03228000  2.27918000  0.26121100  1
  Mo  Mo6  1  6.03486000  0.53271100  2.02609000  1
  Mo  Mo7  1  4.04793000  2.28761000  2.01884000  1
  Mo  Mo8  1  8.03921000  4.04693000  0.25536200  1
  Mo  Mo9  1  2.07107000  5.80931000  0.27466600  1
  Mo  Mo10  1  2.06702000  4.04977000  2.01325000  1
  Mo  Mo11  1  0.07241630  5.81218000  2.03349000  1
  Mo  Mo12  1  4.05700000  4.05413000  0.25573900  1
  Mo  Mo13  1  6.04726000  5.80972000  3.79578000  1
  Mo  Mo14  1  6.03665000  4.04931000  2.01516000  1
  Mo  Mo15  1  4.05865000  5.81926000  2.03644000  1
