# generated using pymatgen
data_Mo
_symmetry_space_group_name_H-M   'P 1'
_cell_length_a   8.08155680
_cell_length_b   7.00160366
_cell_length_c   3.49977207
_cell_angle_alpha   90.00000000
_cell_angle_beta   90.00000000
_cell_angle_gamma   90.00000000
_symmetry_Int_Tables_number   1
_chemical_formula_structural   Mo
_chemical_formula_sum   Mo16
_cell_volume   198.03060480
_cell_formula_units_Z   16
loop_
 _symmetry_equiv_pos_site_id
 _symmetry_equiv_pos_as_xyz
  1  'x, y, z'
loop_
 _atom_site_type_symbol
 _atom_site_label
 _atom_site_symmetry_multiplicity
 _atom_site_fract_x
 _atom_site_fract_y
 _atom_site_fract_z
 _atom_site_occupancy
  Mo  Mo0  1  0.01727240  7.55282000  3.76341000  1
  Mo  Mo1  1  2.03642000  2.29650000  0.28496100  1
  Mo  Mo2  1  2.05525000  0.54479300  2.02364000  1
  Mo  Mo3  1  0.01263750  2.30504000  2.03910000  1
  Mo  Mo4  1  4.05186000  7.55593000  3.76244000  1
  Mo  Mo5  1  6.06523000  2.29427000  0.27666800  1
  Mo  Mo6  1  6.08404000  0.54972300  2.02349000  1
  Mo  Mo7  1  4.05493000  2.30103000  2.02626000  1
  Mo  Mo8  1  8.08639000  4.05165000  0.26644400  1
  Mo  Mo9  1  2.02428000  5.79549000  0.28290500  1
  Mo  Mo10  1  2.02243000  4.04748000  2.01364000  1
  Mo  Mo11  1  0.00357191  5.80535000  2.03738000  1
  Mo  Mo12  1  4.03629000  4.04936000  0.26515200  1
  Mo  Mo13  1  6.05984000  5.78977000  3.78285000  1
  Mo  Mo14  1  6.06676000  4.05263000  2.01448000  1
  Mo  Mo15  1  4.04124000  5.80819000  2.03741000  1
