# generated using pymatgen
data_Mo
_symmetry_space_group_name_H-M   'P 1'
_cell_length_a   8.28679851
_cell_length_b   6.94138843
_cell_length_c   3.46824241
_cell_angle_alpha   90.00000000
_cell_angle_beta   90.00000000
_cell_angle_gamma   90.00000000
_symmetry_Int_Tables_number   1
_chemical_formula_structural   Mo
_chemical_formula_sum   Mo16
_cell_volume   199.49984873
_cell_formula_units_Z   16
loop_
 _symmetry_equiv_pos_site_id
 _symmetry_equiv_pos_as_xyz
  1  'x, y, z'
loop_
 _atom_site_type_symbol
 _atom_site_label
 _atom_site_symmetry_multiplicity
 _atom_site_fract_x
 _atom_site_fract_y
 _atom_site_fract_z
 _atom_site_occupancy
  Mo  Mo0  1  1.97354000  2.32558000  0.28244700  1
  Mo  Mo1  1  1.95784000  0.57671100  2.02562000  1
  Mo  Mo2  1  -0.09255650  2.31450000  2.01772000  1
  Mo  Mo3  1  4.04987000  7.51905000  3.77829000  1
  Mo  Mo4  1  4.04327000  2.31107000  2.01645000  1
  Mo  Mo5  1  -0.09108580  4.04482000  3.76031000  1
  Mo  Mo6  1  1.98090000  5.78588000  0.28209700  1
  Mo  Mo7  1  1.98459000  4.05226000  2.03146000  1
  Mo  Mo8  1  -0.08459520  5.78025000  2.01190000  1
  Mo  Mo9  1  4.06421000  4.04917000  0.29914400  1
  Mo  Mo10  1  4.05605000  5.78272000  2.02307000  1
  Mo  Mo11  1  8.18525000  7.51986000  3.77132000  1
  Mo  Mo12  1  6.12431000  2.32147000  0.28122400  1
  Mo  Mo13  1  6.10600000  0.57952300  2.02731000  1
  Mo  Mo14  1  6.13233000  5.78628000  0.28945200  1
  Mo  Mo15  1  6.12327000  4.05086000  2.03395000  1
