# generated using pymatgen
data_Mo
_symmetry_space_group_name_H-M   'P 1'
_cell_length_a   7.89087158
_cell_length_b   7.05871820
_cell_length_c   3.52936101
_cell_angle_alpha   90.00000000
_cell_angle_beta   90.00000000
_cell_angle_gamma   90.00000000
_symmetry_Int_Tables_number   1
_chemical_formula_structural   Mo
_chemical_formula_sum   Mo16
_cell_volume   196.58342792
_cell_formula_units_Z   16
loop_
 _symmetry_equiv_pos_site_id
 _symmetry_equiv_pos_as_xyz
  1  'x, y, z'
loop_
 _atom_site_type_symbol
 _atom_site_label
 _atom_site_symmetry_multiplicity
 _atom_site_fract_x
 _atom_site_fract_y
 _atom_site_fract_z
 _atom_site_occupancy
  Mo  Mo0  1  0.11224400  7.57775000  3.80429000  1
  Mo  Mo1  1  2.07712000  2.28524000  0.24961700  1
  Mo  Mo2  1  2.09500000  0.52633900  2.03415000  1
  Mo  Mo3  1  0.11070200  2.27358000  2.02046000  1
  Mo  Mo4  1  4.05551000  7.58013000  3.79597000  1
  Mo  Mo5  1  6.02475000  2.29158000  0.24778100  1
  Mo  Mo6  1  6.03470000  0.52017200  2.03134000  1
  Mo  Mo7  1  4.05607000  2.28882000  2.01701000  1
  Mo  Mo8  1  7.99053000  4.05247000  0.26143700  1
  Mo  Mo9  1  2.07743000  5.82060000  0.25903100  1
  Mo  Mo10  1  2.07233000  4.04934000  2.03409000  1
  Mo  Mo11  1  0.10235500  5.81454000  2.02817000  1
  Mo  Mo12  1  4.03548000  4.04702000  0.25322700  1
  Mo  Mo13  1  6.00616000  5.81882000  3.78319000  1
  Mo  Mo14  1  6.01494000  4.05351000  2.03082000  1
  Mo  Mo15  1  4.04382000  5.80010000  2.02006000  1
