# generated using pymatgen
data_Mo
_symmetry_space_group_name_H-M   'P 1'
_cell_length_a   7.90251622
_cell_length_b   7.05527341
_cell_length_c   3.52748227
_cell_angle_alpha   90.00000000
_cell_angle_beta   90.00000000
_cell_angle_gamma   90.00000000
_symmetry_Int_Tables_number   1
_chemical_formula_structural   Mo
_chemical_formula_sum   Mo16
_cell_volume   196.67270185
_cell_formula_units_Z   16
loop_
 _symmetry_equiv_pos_site_id
 _symmetry_equiv_pos_as_xyz
  1  'x, y, z'
loop_
 _atom_site_type_symbol
 _atom_site_label
 _atom_site_symmetry_multiplicity
 _atom_site_fract_x
 _atom_site_fract_y
 _atom_site_fract_z
 _atom_site_occupancy
  Mo  Mo0  1  0.09900800  7.57625000  3.77180000  1
  Mo  Mo1  1  2.08212000  2.28691000  0.27234300  1
  Mo  Mo2  1  2.06994000  0.51708900  2.01564000  1
  Mo  Mo3  1  0.09476450  2.29163000  2.03225000  1
  Mo  Mo4  1  4.04760000  7.57991000  3.78178000  1
  Mo  Mo5  1  6.03050000  2.28135000  0.27262900  1
  Mo  Mo6  1  6.02201000  0.52344900  2.01902000  1
  Mo  Mo7  1  4.04939000  2.28114000  2.03358000  1
  Mo  Mo8  1  7.99976000  4.04765000  0.26436900  1
  Mo  Mo9  1  2.07766000  5.81131000  0.25622600  1
  Mo  Mo10  1  2.06802000  4.05117000  2.01973000  1
  Mo  Mo11  1  0.09455490  5.81588000  2.01761000  1
  Mo  Mo12  1  4.05071000  4.04886000  0.27396100  1
  Mo  Mo13  1  6.03593000  5.81083000  3.79008000  1
  Mo  Mo14  1  6.02515000  4.05038000  2.02389000  1
  Mo  Mo15  1  4.05038000  5.82619000  2.02760000  1
