# generated using pymatgen
data_Mo
_symmetry_space_group_name_H-M   'P 1'
_cell_length_a   7.49057829
_cell_length_b   7.19460538
_cell_length_c   3.59678340
_cell_angle_alpha   90.00000000
_cell_angle_beta   90.00000000
_cell_angle_gamma   90.00000000
_symmetry_Int_Tables_number   1
_chemical_formula_structural   Mo
_chemical_formula_sum   Mo16
_cell_volume   193.83696938
_cell_formula_units_Z   16
loop_
 _symmetry_equiv_pos_site_id
 _symmetry_equiv_pos_as_xyz
  1  'x, y, z'
loop_
 _atom_site_type_symbol
 _atom_site_label
 _atom_site_symmetry_multiplicity
 _atom_site_fract_x
 _atom_site_fract_y
 _atom_site_fract_z
 _atom_site_occupancy
  Mo  Mo0  1  0.28944600  7.63710000  3.82060000  1
  Mo  Mo1  1  2.17442000  2.25876000  0.22936900  1
  Mo  Mo2  1  2.16517000  0.45958000  2.01588000  1
  Mo  Mo3  1  0.29273600  2.25032000  2.02755000  1
  Mo  Mo4  1  4.03760000  7.64338000  3.82879000  1
  Mo  Mo5  1  5.92770000  2.26009000  0.22869800  1
  Mo  Mo6  1  5.91348000  0.45836700  2.01954000  1
  Mo  Mo7  1  4.04946000  2.24927000  2.03062000  1
  Mo  Mo8  1  7.80357000  4.04425000  0.20931900  1
  Mo  Mo9  1  2.18600000  5.84753000  0.23674100  1
  Mo  Mo10  1  2.17378000  4.05908000  2.00563000  1
  Mo  Mo11  1  0.30395400  5.84196000  2.03201000  1
  Mo  Mo12  1  4.06026000  4.03894000  0.21745400  1
  Mo  Mo13  1  5.93833000  5.84809000  3.84184000  1
  Mo  Mo14  1  5.93643000  4.05658000  2.01055000  1
  Mo  Mo15  1  4.05707000  5.84671000  2.04864000  1
