# generated using pymatgen
data_Mo
_symmetry_space_group_name_H-M   'P 1'
_cell_length_a   7.76132235
_cell_length_b   7.09931421
_cell_length_c   3.55042958
_cell_angle_alpha   90.00000000
_cell_angle_beta   90.00000000
_cell_angle_gamma   90.00000000
_symmetry_Int_Tables_number   1
_chemical_formula_structural   Mo
_chemical_formula_sum   Mo16
_cell_volume   195.62890456
_cell_formula_units_Z   16
loop_
 _symmetry_equiv_pos_site_id
 _symmetry_equiv_pos_as_xyz
  1  'x, y, z'
loop_
 _atom_site_type_symbol
 _atom_site_label
 _atom_site_symmetry_multiplicity
 _atom_site_fract_x
 _atom_site_fract_y
 _atom_site_fract_z
 _atom_site_occupancy
  Mo  Mo0  1  0.15782400  7.59959000  3.80130000  1
  Mo  Mo1  1  2.11061000  2.26581000  0.25255200  1
  Mo  Mo2  1  2.10530000  0.50293100  2.01832000  1
  Mo  Mo3  1  0.16283700  2.26856000  2.02343000  1
  Mo  Mo4  1  4.03434000  7.60412000  3.80283000  1
  Mo  Mo5  1  5.99038000  2.27428000  0.25367500  1
  Mo  Mo6  1  5.97462000  0.49297800  2.01920000  1
  Mo  Mo7  1  4.04598000  2.28187000  2.02795000  1
  Mo  Mo8  1  7.94596000  4.05835000  0.25374000  1
  Mo  Mo9  1  2.12855000  5.82875000  0.24028700  1
  Mo  Mo10  1  2.11371000  4.04553000  2.03895000  1
  Mo  Mo11  1  0.17495900  5.83124000  2.00658000  1
  Mo  Mo12  1  4.05330000  4.05118000  0.25563100  1
  Mo  Mo13  1  5.99363000  5.82923000  3.79647000  1
  Mo  Mo14  1  5.99521000  4.04410000  2.04049000  1
  Mo  Mo15  1  4.05147000  5.82148000  2.01818000  1
