# generated using pymatgen
data_Mo
_symmetry_space_group_name_H-M   'P 1'
_cell_length_a   7.60266058
_cell_length_b   7.15162694
_cell_length_c   3.57784677
_cell_angle_alpha   90.00000000
_cell_angle_beta   90.00000000
_cell_angle_gamma   90.00000000
_symmetry_Int_Tables_number   1
_chemical_formula_structural   Mo
_chemical_formula_sum   Mo16
_cell_volume   194.53250995
_cell_formula_units_Z   16
loop_
 _symmetry_equiv_pos_site_id
 _symmetry_equiv_pos_as_xyz
  1  'x, y, z'
loop_
 _atom_site_type_symbol
 _atom_site_label
 _atom_site_symmetry_multiplicity
 _atom_site_fract_x
 _atom_site_fract_y
 _atom_site_fract_z
 _atom_site_occupancy
  Mo  Mo0  1  0.23719100  7.63572000  3.81392000  1
  Mo  Mo1  1  2.15056000  2.25813000  0.23106400  1
  Mo  Mo2  1  2.13202000  0.46735000  2.03007000  1
  Mo  Mo3  1  0.24035000  2.27540000  2.01888000  1
  Mo  Mo4  1  4.03791000  7.62874000  3.82223000  1
  Mo  Mo5  1  5.95176000  2.25426000  0.22997600  1
  Mo  Mo6  1  5.95235000  0.47024100  2.03384000  1
  Mo  Mo7  1  4.04606000  2.26870000  2.02112000  1
  Mo  Mo8  1  7.85887000  4.05510000  0.22191800  1
  Mo  Mo9  1  2.15413000  5.82855000  0.23746700  1
  Mo  Mo10  1  2.15087000  4.04476000  2.02156000  1
  Mo  Mo11  1  0.24381400  5.83361000  2.02216000  1
  Mo  Mo12  1  4.06398000  4.06320000  0.23011800  1
  Mo  Mo13  1  5.96812000  5.83278000  3.82321000  1
  Mo  Mo14  1  5.95264000  4.03982000  2.02665000  1
  Mo  Mo15  1  4.05671000  5.84363000  2.03797000  1
