# generated using pymatgen
data_Mo
_symmetry_space_group_name_H-M   'P 1'
_cell_length_a   7.49348968
_cell_length_b   7.19525000
_cell_length_c   3.59541106
_cell_angle_alpha   90.00000000
_cell_angle_beta   90.00000000
_cell_angle_gamma   90.00000000
_symmetry_Int_Tables_number   1
_chemical_formula_structural   Mo
_chemical_formula_sum   Mo16
_cell_volume   193.85568983
_cell_formula_units_Z   16
loop_
 _symmetry_equiv_pos_site_id
 _symmetry_equiv_pos_as_xyz
  1  'x, y, z'
loop_
 _atom_site_type_symbol
 _atom_site_label
 _atom_site_symmetry_multiplicity
 _atom_site_fract_x
 _atom_site_fract_y
 _atom_site_fract_z
 _atom_site_occupancy
  Mo  Mo0  1  0.28737000  7.64291000  3.82516000  1
  Mo  Mo1  1  2.17359000  2.25282000  0.22954900  1
  Mo  Mo2  1  2.16668000  0.45628100  2.01445000  1
  Mo  Mo3  1  0.29602600  2.25589000  2.02460000  1
  Mo  Mo4  1  4.03892000  7.64603000  3.83014000  1
  Mo  Mo5  1  5.92614000  2.25685000  0.23069300  1
  Mo  Mo6  1  5.91441000  0.45228400  2.01617000  1
  Mo  Mo7  1  4.04658000  2.25047000  2.03018000  1
  Mo  Mo8  1  7.80664000  4.04898000  0.21292800  1
  Mo  Mo9  1  2.18252000  5.84350000  0.23508900  1
  Mo  Mo10  1  2.17200000  4.05618000  2.01329000  1
  Mo  Mo11  1  0.30427500  5.84281000  2.02511000  1
  Mo  Mo12  1  4.06739000  4.04455000  0.21785400  1
  Mo  Mo13  1  5.94035000  5.85004000  3.83996000  1
  Mo  Mo14  1  5.92956000  4.04722000  2.01618000  1
  Mo  Mo15  1  4.05405000  5.85316000  2.04325000  1
