# generated using pymatgen
data_Mo
_symmetry_space_group_name_H-M   'P 1'
_cell_length_a   8.27078655
_cell_length_b   6.94313872
_cell_length_c   3.47211671
_cell_angle_alpha   90.00000000
_cell_angle_beta   90.00000000
_cell_angle_gamma   90.00000000
_symmetry_Int_Tables_number   1
_chemical_formula_structural   Mo
_chemical_formula_sum   Mo16
_cell_volume   199.38705997
_cell_formula_units_Z   16
loop_
 _symmetry_equiv_pos_site_id
 _symmetry_equiv_pos_as_xyz
  1  'x, y, z'
loop_
 _atom_site_type_symbol
 _atom_site_label
 _atom_site_symmetry_multiplicity
 _atom_site_fract_x
 _atom_site_fract_y
 _atom_site_fract_z
 _atom_site_occupancy
  Mo  Mo0  1  1.97660000  2.30518000  0.29824900  1
  Mo  Mo1  1  1.99093000  0.57481000  2.01948000  1
  Mo  Mo2  1  -0.08515680  2.31701000  2.03217000  1
  Mo  Mo3  1  4.05514000  7.52529000  3.75134000  1
  Mo  Mo4  1  4.05949000  2.32705000  2.02977000  1
  Mo  Mo5  1  -0.08359380  4.05384000  3.75446000  1
  Mo  Mo6  1  1.97741000  5.78564000  0.29762300  1
  Mo  Mo7  1  1.97066000  4.03927000  2.02190000  1
  Mo  Mo8  1  -0.09174990  5.79947000  2.03270000  1
  Mo  Mo9  1  4.04688000  4.05444000  0.28369000  1
  Mo  Mo10  1  4.04954000  5.78712000  2.02302000  1
  Mo  Mo11  1  8.18997000  7.52292000  3.75020000  1
  Mo  Mo12  1  6.11925000  2.30313000  0.29770300  1
  Mo  Mo13  1  6.13367000  0.57732600  2.02096000  1
  Mo  Mo14  1  6.10810000  5.77733000  0.29189200  1
  Mo  Mo15  1  6.11207000  4.05017000  2.02273000  1
