# generated using pymatgen
data_Mo
_symmetry_space_group_name_H-M   'P 1'
_cell_length_a   7.56335887
_cell_length_b   7.16839942
_cell_length_c   3.58341193
_cell_angle_alpha   90.00000000
_cell_angle_beta   90.00000000
_cell_angle_gamma   90.00000000
_symmetry_Int_Tables_number   1
_chemical_formula_structural   Mo
_chemical_formula_sum   Mo16
_cell_volume   194.28248036
_cell_formula_units_Z   16
loop_
 _symmetry_equiv_pos_site_id
 _symmetry_equiv_pos_as_xyz
  1  'x, y, z'
loop_
 _atom_site_type_symbol
 _atom_site_label
 _atom_site_symmetry_multiplicity
 _atom_site_fract_x
 _atom_site_fract_y
 _atom_site_fract_z
 _atom_site_occupancy
  Mo  Mo0  1  0.25303500  7.62699000  3.82448000  1
  Mo  Mo1  1  2.15785000  2.25581000  0.21923300  1
  Mo  Mo2  1  2.17060000  0.47718100  2.02609000  1
  Mo  Mo3  1  0.27141900  2.25230000  2.01461000  1
  Mo  Mo4  1  4.03756000  7.62692000  3.82808000  1
  Mo  Mo5  1  5.92955000  2.26237000  0.22877700  1
  Mo  Mo6  1  5.93385000  0.47163700  2.02773000  1
  Mo  Mo7  1  4.03992000  2.24747000  2.03201000  1
  Mo  Mo8  1  7.83748000  4.04534000  0.21978100  1
  Mo  Mo9  1  2.16100000  5.84704000  0.23690100  1
  Mo  Mo10  1  2.17181000  4.06077000  2.02282000  1
  Mo  Mo11  1  0.27851900  5.83295000  2.03071000  1
  Mo  Mo12  1  4.05895000  4.04452000  0.22327000  1
  Mo  Mo13  1  5.94460000  5.85372000  3.82208000  1
  Mo  Mo14  1  5.94585000  4.05200000  2.02345000  1
  Mo  Mo15  1  4.04465000  5.84297000  2.03656000  1
