# generated using pymatgen
data_Mo
_symmetry_space_group_name_H-M   'P 1'
_cell_length_a   8.49640660
_cell_length_b   6.87181240
_cell_length_c   3.44107533
_cell_angle_alpha   90.00000000
_cell_angle_beta   90.00000000
_cell_angle_gamma   90.00000000
_symmetry_Int_Tables_number   1
_chemical_formula_structural   Mo
_chemical_formula_sum   Mo16
_cell_volume   200.90963378
_cell_formula_units_Z   16
loop_
 _symmetry_equiv_pos_site_id
 _symmetry_equiv_pos_as_xyz
  1  'x, y, z'
loop_
 _atom_site_type_symbol
 _atom_site_label
 _atom_site_symmetry_multiplicity
 _atom_site_fract_x
 _atom_site_fract_y
 _atom_site_fract_z
 _atom_site_occupancy
  Mo  Mo0  1  1.92757000  2.32876000  0.30565400  1
  Mo  Mo1  1  1.92905000  0.61065700  2.03169000  1
  Mo  Mo2  1  -0.19434600  2.33994000  2.02398000  1
  Mo  Mo3  1  4.04490000  7.48561000  3.74322000  1
  Mo  Mo4  1  4.04642000  2.33588000  2.01385000  1
  Mo  Mo5  1  -0.19414100  4.05166000  3.74696000  1
  Mo  Mo6  1  1.92563000  5.76014000  0.31134400  1
  Mo  Mo7  1  1.93375000  4.04863000  2.02086000  1
  Mo  Mo8  1  -0.19845300  5.77146000  2.03020000  1
  Mo  Mo9  1  4.05132000  4.05531000  0.29743400  1
  Mo  Mo10  1  4.04888000  5.77153000  2.02318000  1
  Mo  Mo11  1  8.30048000  7.48963000  3.75114000  1
  Mo  Mo12  1  6.16713000  2.32706000  0.30299700  1
  Mo  Mo13  1  6.17900000  0.61302400  2.02803000  1
  Mo  Mo14  1  6.16726000  5.76360000  0.31100700  1
  Mo  Mo15  1  6.16914000  4.04712000  2.01738000  1
