# generated using pymatgen
data_Mo
_symmetry_space_group_name_H-M   'P 1'
_cell_length_a   7.75841095
_cell_length_b   7.10057780
_cell_length_c   3.55066228
_cell_angle_alpha   90.00000000
_cell_angle_beta   90.00000000
_cell_angle_gamma   90.00000000
_symmetry_Int_Tables_number   1
_chemical_formula_structural   Mo
_chemical_formula_sum   Mo16
_cell_volume   195.60314633
_cell_formula_units_Z   16
loop_
 _symmetry_equiv_pos_site_id
 _symmetry_equiv_pos_as_xyz
  1  'x, y, z'
loop_
 _atom_site_type_symbol
 _atom_site_label
 _atom_site_symmetry_multiplicity
 _atom_site_fract_x
 _atom_site_fract_y
 _atom_site_fract_z
 _atom_site_occupancy
  Mo  Mo0  1  0.16012300  7.60382000  3.78943000  1
  Mo  Mo1  1  2.10744000  2.26235000  0.25505100  1
  Mo  Mo2  1  2.10707000  0.49903900  2.01636000  1
  Mo  Mo3  1  0.16618800  2.27035000  2.02673000  1
  Mo  Mo4  1  4.03025000  7.60746000  3.79682000  1
  Mo  Mo5  1  5.98314000  2.26648000  0.25859700  1
  Mo  Mo6  1  5.97864000  0.49269700  2.02084000  1
  Mo  Mo7  1  4.04957000  2.28700000  2.03578000  1
  Mo  Mo8  1  7.95075000  4.05931000  0.24272000  1
  Mo  Mo9  1  2.12836000  5.82557000  0.24753100  1
  Mo  Mo10  1  2.11532000  4.04092000  2.03046000  1
  Mo  Mo11  1  0.17709700  5.83843000  2.01797000  1
  Mo  Mo12  1  4.05403000  4.05589000  0.25036900  1
  Mo  Mo13  1  5.98625000  5.82083000  3.80055000  1
  Mo  Mo14  1  5.99213000  4.04536000  2.03477000  1
  Mo  Mo15  1  4.05524000  5.82450000  2.02536000  1
