# generated using pymatgen
data_Mo
_symmetry_space_group_name_H-M   'P 1'
_cell_length_a   8.23294079
_cell_length_b   6.95491534
_cell_length_c   3.47758412
_cell_angle_alpha   90.00000000
_cell_angle_beta   90.00000000
_cell_angle_gamma   90.00000000
_symmetry_Int_Tables_number   1
_chemical_formula_structural   Mo
_chemical_formula_sum   Mo16
_cell_volume   199.12440193
_cell_formula_units_Z   16
loop_
 _symmetry_equiv_pos_site_id
 _symmetry_equiv_pos_as_xyz
  1  'x, y, z'
loop_
 _atom_site_type_symbol
 _atom_site_label
 _atom_site_symmetry_multiplicity
 _atom_site_fract_x
 _atom_site_fract_y
 _atom_site_fract_z
 _atom_site_occupancy
  Mo  Mo0  1  2.00065000  2.31809000  0.29184000  1
  Mo  Mo1  1  2.00369000  0.57390900  2.02412000  1
  Mo  Mo2  1  -0.05513800  2.30704000  2.03418000  1
  Mo  Mo3  1  4.06140000  7.52732000  3.75460000  1
  Mo  Mo4  1  4.05230000  2.30818000  2.02741000  1
  Mo  Mo5  1  -0.07200760  4.04951000  3.77650000  1
  Mo  Mo6  1  1.99141000  5.79059000  0.27637000  1
  Mo  Mo7  1  1.97559000  4.05159000  2.02670000  1
  Mo  Mo8  1  -0.06202330  5.78342000  2.02095000  1
  Mo  Mo9  1  4.04627000  4.04522000  0.29631200  1
  Mo  Mo10  1  4.03943000  5.78395000  2.02238000  1
  Mo  Mo11  1  8.17201000  7.52405000  3.75699000  1
  Mo  Mo12  1  6.11370000  2.32058000  0.28651400  1
  Mo  Mo13  1  6.10235000  0.57377900  2.02383000  1
  Mo  Mo14  1  6.10749000  5.78844000  0.27688900  1
  Mo  Mo15  1  6.08993000  4.05432000  2.02683000  1
