# generated using pymatgen
data_Mo
_symmetry_space_group_name_H-M   'P 1'
_cell_length_a   7.33337244
_cell_length_b   7.25537735
_cell_length_c   3.62751365
_cell_angle_alpha   90.00000000
_cell_angle_beta   90.00000000
_cell_angle_gamma   90.00000000
_symmetry_Int_Tables_number   1
_chemical_formula_structural   Mo
_chemical_formula_sum   Mo16
_cell_volume   193.00688532
_cell_formula_units_Z   16
loop_
 _symmetry_equiv_pos_site_id
 _symmetry_equiv_pos_as_xyz
  1  'x, y, z'
loop_
 _atom_site_type_symbol
 _atom_site_label
 _atom_site_symmetry_multiplicity
 _atom_site_fract_x
 _atom_site_fract_y
 _atom_site_fract_z
 _atom_site_occupancy
  Mo  Mo0  1  0.37432000  7.66506000  3.83728000  1
  Mo  Mo1  1  2.21704000  2.23253000  0.21000200  1
  Mo  Mo2  1  2.21870000  0.43493200  2.01675000  1
  Mo  Mo3  1  0.38202300  2.22546000  2.02583000  1
  Mo  Mo4  1  4.04460000  7.67272000  3.84011000  1
  Mo  Mo5  1  5.88445000  2.24064000  0.21526600  1
  Mo  Mo6  1  5.86311000  0.42734900  2.01866000  1
  Mo  Mo7  1  4.04331000  2.23577000  2.03644000  1
  Mo  Mo8  1  7.72845000  4.04787000  0.19741600  1
  Mo  Mo9  1  2.23091000  5.87261000  0.22177200  1
  Mo  Mo10  1  2.21639000  4.05568000  2.01198000  1
  Mo  Mo11  1  0.39263200  5.86408000  2.03764000  1
  Mo  Mo12  1  4.05636000  4.03978000  0.20015800  1
  Mo  Mo13  1  5.88597000  5.87132000  3.84942000  1
  Mo  Mo14  1  5.88349000  4.05657000  2.01322000  1
  Mo  Mo15  1  4.04487000  5.85764000  2.04052000  1
