# generated using pymatgen
data_Mo
_symmetry_space_group_name_H-M   'P 1'
_cell_length_a   8.56773078
_cell_length_b   6.87536645
_cell_length_c   3.42019415
_cell_angle_alpha   90.00000000
_cell_angle_beta   90.00000000
_cell_angle_gamma   90.00000000
_symmetry_Int_Tables_number   1
_chemical_formula_structural   Mo
_chemical_formula_sum   Mo16
_cell_volume   201.47094423
_cell_formula_units_Z   16
loop_
 _symmetry_equiv_pos_site_id
 _symmetry_equiv_pos_as_xyz
  1  'x, y, z'
loop_
 _atom_site_type_symbol
 _atom_site_label
 _atom_site_symmetry_multiplicity
 _atom_site_fract_x
 _atom_site_fract_y
 _atom_site_fract_z
 _atom_site_occupancy
  Mo  Mo0  1  1.90727000  2.33571000  0.32698800  1
  Mo  Mo1  1  1.91010000  0.61896000  2.01463000  1
  Mo  Mo2  1  -0.23178800  2.32840000  2.04524000  1
  Mo  Mo3  1  4.06056000  7.47804000  3.72052000  1
  Mo  Mo4  1  4.06132000  2.31916000  2.03646000  1
  Mo  Mo5  1  -0.24429700  4.04116000  3.73531000  1
  Mo  Mo6  1  1.89225000  5.77725000  0.31146200  1
  Mo  Mo7  1  1.90227000  4.05961000  2.01860000  1
  Mo  Mo8  1  -0.24177900  5.76151000  2.02971000  1
  Mo  Mo9  1  4.03698000  4.04257000  0.31638500  1
  Mo  Mo10  1  4.05789000  5.76854000  2.03370000  1
  Mo  Mo11  1  8.35224000  7.48121000  3.71882000  1
  Mo  Mo12  1  6.18743000  2.32858000  0.32076600  1
  Mo  Mo13  1  6.20799000  0.62476600  2.01617000  1
  Mo  Mo14  1  6.18206000  5.77525000  0.31403200  1
  Mo  Mo15  1  6.19178000  4.05929000  2.02100000  1
