# generated using pymatgen
data_Mo
_symmetry_space_group_name_H-M   'P 1'
_cell_length_a   8.06845671
_cell_length_b   7.00585872
_cell_length_c   3.50160813
_cell_angle_alpha   90.00000000
_cell_angle_beta   90.00000000
_cell_angle_gamma   90.00000000
_symmetry_Int_Tables_number   1
_chemical_formula_structural   Mo
_chemical_formula_sum   Mo16
_cell_volume   197.93353931
_cell_formula_units_Z   16
loop_
 _symmetry_equiv_pos_site_id
 _symmetry_equiv_pos_as_xyz
  1  'x, y, z'
loop_
 _atom_site_type_symbol
 _atom_site_label
 _atom_site_symmetry_multiplicity
 _atom_site_fract_x
 _atom_site_fract_y
 _atom_site_fract_z
 _atom_site_occupancy
  Mo  Mo0  1  0.01303020  7.55639000  3.78797000  1
  Mo  Mo1  1  2.03082000  2.30082000  0.26762300  1
  Mo  Mo2  1  2.00711000  0.55114500  2.02551000  1
  Mo  Mo3  1  0.01427110  2.29629000  2.01962000  1
  Mo  Mo4  1  4.05198000  7.54557000  3.77969000  1
  Mo  Mo5  1  6.07278000  2.30234000  0.27212700  1
  Mo  Mo6  1  6.05953000  0.54739500  2.02196000  1
  Mo  Mo7  1  4.04418000  2.29360000  2.02527000  1
  Mo  Mo8  1  8.08156000  4.04758000  0.28709900  1
  Mo  Mo9  1  2.03433000  5.80302000  0.26435100  1
  Mo  Mo10  1  2.04181000  4.05485000  2.04404000  1
  Mo  Mo11  1  0.01773220  5.79229000  2.01478000  1
  Mo  Mo12  1  4.05948000  4.05370000  0.27887400  1
  Mo  Mo13  1  6.07908000  5.81317000  3.76189000  1
  Mo  Mo14  1  6.06638000  4.04581000  2.03952000  1
  Mo  Mo15  1  4.05746000  5.79604000  2.00805000  1
