# generated using pymatgen
data_Mo
_symmetry_space_group_name_H-M   'P 1'
_cell_length_a   8.20091687
_cell_length_b   6.96596366
_cell_length_c   3.48178887
_cell_angle_alpha   90.00000000
_cell_angle_beta   90.00000000
_cell_angle_gamma   90.00000000
_symmetry_Int_Tables_number   1
_chemical_formula_structural   Mo
_chemical_formula_sum   Mo16
_cell_volume   198.90515885
_cell_formula_units_Z   16
loop_
 _symmetry_equiv_pos_site_id
 _symmetry_equiv_pos_as_xyz
  1  'x, y, z'
loop_
 _atom_site_type_symbol
 _atom_site_label
 _atom_site_symmetry_multiplicity
 _atom_site_fract_x
 _atom_site_fract_y
 _atom_site_fract_z
 _atom_site_occupancy
  Mo  Mo0  1  -0.04925410  7.52438000  3.75461000  1
  Mo  Mo1  1  2.00133000  2.31022000  0.28972000  1
  Mo  Mo2  1  2.00275000  0.57754800  2.00732000  1
  Mo  Mo3  1  -0.04797730  2.29372000  2.03589000  1
  Mo  Mo4  1  4.05338000  7.52872000  3.75933000  1
  Mo  Mo5  1  6.10723000  2.31556000  0.29693200  1
  Mo  Mo6  1  6.09730000  0.57189200  2.00921000  1
  Mo  Mo7  1  4.05072000  2.30776000  2.04627000  1
  Mo  Mo8  1  8.14746000  4.04253000  0.27640800  1
  Mo  Mo9  1  2.00549000  5.79493000  0.28386200  1
  Mo  Mo10  1  1.99889000  4.05854000  2.02634000  1
  Mo  Mo11  1  -0.04846920  5.79574000  2.02825000  1
  Mo  Mo12  1  4.04228000  4.04112000  0.28156300  1
  Mo  Mo13  1  6.09527000  5.79200000  3.76618000  1
  Mo  Mo14  1  6.09591000  4.06289000  2.02724000  1
  Mo  Mo15  1  4.04675000  5.78243000  2.02909000  1
