# generated using pymatgen
data_Mo
_symmetry_space_group_name_H-M   'P 1'
_cell_length_a   7.33046106
_cell_length_b   7.25542480
_cell_length_c   3.62845302
_cell_angle_alpha   90.00000000
_cell_angle_beta   90.00000000
_cell_angle_gamma   90.00000000
_symmetry_Int_Tables_number   1
_chemical_formula_structural   Mo
_chemical_formula_sum   Mo16
_cell_volume   192.98148309
_cell_formula_units_Z   16
loop_
 _symmetry_equiv_pos_site_id
 _symmetry_equiv_pos_as_xyz
  1  'x, y, z'
loop_
 _atom_site_type_symbol
 _atom_site_label
 _atom_site_symmetry_multiplicity
 _atom_site_fract_x
 _atom_site_fract_y
 _atom_site_fract_z
 _atom_site_occupancy
  Mo  Mo0  1  0.38642300  7.66377000  3.82915000  1
  Mo  Mo1  1  2.22222000  2.23553000  0.21548400  1
  Mo  Mo2  1  2.21902000  0.43310900  2.01904000  1
  Mo  Mo3  1  0.38479000  2.22608000  2.03563000  1
  Mo  Mo4  1  4.05040000  7.67344000  3.83099000  1
  Mo  Mo5  1  5.88254000  2.23864000  0.21433500  1
  Mo  Mo6  1  5.86019000  0.43209600  2.02058000  1
  Mo  Mo7  1  4.05002000  2.23057000  2.03463000  1
  Mo  Mo8  1  7.72254000  4.04656000  0.20093100  1
  Mo  Mo9  1  2.22745000  5.87451000  0.21784300  1
  Mo  Mo10  1  2.21166000  4.05566000  2.01204000  1
  Mo  Mo11  1  0.39359300  5.86333000  2.03950000  1
  Mo  Mo12  1  4.04672000  4.03803000  0.20265000  1
  Mo  Mo13  1  5.88111000  5.86794000  3.84574000  1
  Mo  Mo14  1  5.88306000  4.06143000  2.01366000  1
  Mo  Mo15  1  4.04781000  5.85930000  2.03934000  1
