# generated using pymatgen
data_Mo
_symmetry_space_group_name_H-M   'P 1'
_cell_length_a   7.48038912
_cell_length_b   7.19701305
_cell_length_c   3.59961104
_cell_angle_alpha   90.00000000
_cell_angle_beta   90.00000000
_cell_angle_gamma   90.00000000
_symmetry_Int_Tables_number   1
_chemical_formula_structural   Mo
_chemical_formula_sum   Mo16
_cell_volume   193.79030916
_cell_formula_units_Z   16
loop_
 _symmetry_equiv_pos_site_id
 _symmetry_equiv_pos_as_xyz
  1  'x, y, z'
loop_
 _atom_site_type_symbol
 _atom_site_label
 _atom_site_symmetry_multiplicity
 _atom_site_fract_x
 _atom_site_fract_y
 _atom_site_fract_z
 _atom_site_occupancy
  Mo  Mo0  1  0.31862800  7.64972000  3.82794000  1
  Mo  Mo1  1  2.17417000  2.24818000  0.21698100  1
  Mo  Mo2  1  2.18516000  0.44897500  2.03727000  1
  Mo  Mo3  1  0.31062800  2.24139000  2.01576000  1
  Mo  Mo4  1  4.05414000  7.65482000  3.82791000  1
  Mo  Mo5  1  5.91572000  2.25001000  0.21930300  1
  Mo  Mo6  1  5.91995000  0.44707200  2.03730000  1
  Mo  Mo7  1  4.05589000  2.25656000  2.01734000  1
  Mo  Mo8  1  7.79288000  4.05334000  0.23089000  1
  Mo  Mo9  1  2.18071000  5.85344000  0.22232100  1
  Mo  Mo10  1  2.18259000  4.04368000  2.03059000  1
  Mo  Mo11  1  0.31238500  5.85981000  2.02457000  1
  Mo  Mo12  1  4.03893000  4.05078000  0.23088000  1
  Mo  Mo13  1  5.90203000  5.84590000  3.81674000  1
  Mo  Mo14  1  5.92389000  4.05346000  2.02963000  1
  Mo  Mo15  1  4.05193000  5.84285000  2.01496000  1
