# generated using pymatgen
data_Mo
_symmetry_space_group_name_H-M   'P 1'
_cell_length_a   7.31881642
_cell_length_b   7.26028568
_cell_length_c   3.63093448
_cell_angle_alpha   90.00000000
_cell_angle_beta   90.00000000
_cell_angle_gamma   90.00000000
_symmetry_Int_Tables_number   1
_chemical_formula_structural   Mo
_chemical_formula_sum   Mo16
_cell_volume   192.93586890
_cell_formula_units_Z   16
loop_
 _symmetry_equiv_pos_site_id
 _symmetry_equiv_pos_as_xyz
  1  'x, y, z'
loop_
 _atom_site_type_symbol
 _atom_site_label
 _atom_site_symmetry_multiplicity
 _atom_site_fract_x
 _atom_site_fract_y
 _atom_site_fract_z
 _atom_site_occupancy
  Mo  Mo0  1  0.39625400  7.69315000  3.85061000  1
  Mo  Mo1  1  2.21991000  2.23373000  0.21252800  1
  Mo  Mo2  1  2.22949000  0.41063600  2.02787000  1
  Mo  Mo3  1  0.38909000  2.23962000  2.02388000  1
  Mo  Mo4  1  4.05447000  7.68599000  3.84023000  1
  Mo  Mo5  1  5.88340000  2.23666000  0.20800800  1
  Mo  Mo6  1  5.90796000  0.40752800  2.02238000  1
  Mo  Mo7  1  4.05976000  2.24258000  2.01350000  1
  Mo  Mo8  1  7.70015000  4.05459000  0.22806500  1
  Mo  Mo9  1  2.21039000  5.85507000  0.19907800  1
  Mo  Mo10  1  2.21287000  4.04291000  2.04470000  1
  Mo  Mo11  1  0.37666200  5.87205000  2.00747000  1
  Mo  Mo12  1  4.03917000  4.05867000  0.21780700  1
  Mo  Mo13  1  5.87415000  5.85809000  3.82974000  1
  Mo  Mo14  1  5.87753000  4.04142000  2.03983000  1
  Mo  Mo15  1  4.04993000  5.86732000  2.00337000  1
