# generated using pymatgen
data_Mo
_symmetry_space_group_name_H-M   'P 1'
_cell_length_a   8.43235971
_cell_length_b   6.89956599
_cell_length_c   3.44593358
_cell_angle_alpha   90.00000000
_cell_angle_beta   90.00000000
_cell_angle_gamma   90.00000000
_symmetry_Int_Tables_number   1
_chemical_formula_structural   Mo
_chemical_formula_sum   Mo16
_cell_volume   200.48311422
_cell_formula_units_Z   16
loop_
 _symmetry_equiv_pos_site_id
 _symmetry_equiv_pos_as_xyz
  1  'x, y, z'
loop_
 _atom_site_type_symbol
 _atom_site_label
 _atom_site_symmetry_multiplicity
 _atom_site_fract_x
 _atom_site_fract_y
 _atom_site_fract_z
 _atom_site_occupancy
  Mo  Mo0  1  1.93890000  2.31574000  0.30200100  1
  Mo  Mo1  1  1.92904000  0.59471400  2.03065000  1
  Mo  Mo2  1  -0.16890300  2.33071000  2.02071000  1
  Mo  Mo3  1  4.04044000  7.50326000  3.74232000  1
  Mo  Mo4  1  4.03957000  2.32679000  2.03057000  1
  Mo  Mo5  1  -0.16131400  4.04905000  3.73407000  1
  Mo  Mo6  1  1.94639000  5.76290000  0.31179000  1
  Mo  Mo7  1  1.95205000  4.04960000  2.01141000  1
  Mo  Mo8  1  -0.16460400  5.78406000  2.03488000  1
  Mo  Mo9  1  4.06689000  4.05888000  0.29434800  1
  Mo  Mo10  1  4.05158000  5.78970000  2.04062000  1
  Mo  Mo11  1  8.25045000  7.50981000  3.73617000  1
  Mo  Mo12  1  6.15870000  2.31456000  0.30692400  1
  Mo  Mo13  1  6.15738000  0.59672000  2.03159000  1
  Mo  Mo14  1  6.17321000  5.76887000  0.31429800  1
  Mo  Mo15  1  6.15786000  4.04462000  2.01173000  1
