# generated using pymatgen
data_Mo
_symmetry_space_group_name_H-M   'P 1'
_cell_length_a   7.67980804
_cell_length_b   7.12543350
_cell_length_c   3.56431222
_cell_angle_alpha   90.00000000
_cell_angle_beta   90.00000000
_cell_angle_gamma   90.00000000
_symmetry_Int_Tables_number   1
_chemical_formula_structural   Mo
_chemical_formula_sum   Mo16
_cell_volume   195.04615600
_cell_formula_units_Z   16
loop_
 _symmetry_equiv_pos_site_id
 _symmetry_equiv_pos_as_xyz
  1  'x, y, z'
loop_
 _atom_site_type_symbol
 _atom_site_label
 _atom_site_symmetry_multiplicity
 _atom_site_fract_x
 _atom_site_fract_y
 _atom_site_fract_z
 _atom_site_occupancy
  Mo  Mo0  1  0.20427000  7.61811000  3.79770000  1
  Mo  Mo1  1  2.13024000  2.26070000  0.24257700  1
  Mo  Mo2  1  2.11918000  0.48046500  2.02663000  1
  Mo  Mo3  1  0.21009600  2.27288000  2.02306000  1
  Mo  Mo4  1  4.04725000  7.62460000  3.80607000  1
  Mo  Mo5  1  5.96919000  2.26165000  0.24566500  1
  Mo  Mo6  1  5.94507000  0.47931900  2.02939000  1
  Mo  Mo7  1  4.04253000  2.26982000  2.02937000  1
  Mo  Mo8  1  7.89354000  4.05776000  0.23083700  1
  Mo  Mo9  1  2.13742000  5.82328000  0.24426000  1
  Mo  Mo10  1  2.13735000  4.04705000  2.02035000  1
  Mo  Mo11  1  0.22202200  5.83855000  2.02374000  1
  Mo  Mo12  1  4.05716000  4.05380000  0.23934200  1
  Mo  Mo13  1  5.97687000  5.82420000  3.81604000  1
  Mo  Mo14  1  5.97596000  4.04434000  2.02364000  1
  Mo  Mo15  1  4.05204000  5.84347000  2.03701000  1
