# generated using pymatgen
data_Mo
_symmetry_space_group_name_H-M   'P 1'
_cell_length_a   8.11794710
_cell_length_b   6.99138296
_cell_length_c   3.49393678
_cell_angle_alpha   90.00000000
_cell_angle_beta   90.00000000
_cell_angle_gamma   90.00000000
_symmetry_Int_Tables_number   1
_chemical_formula_structural   Mo
_chemical_formula_sum   Mo16
_cell_volume   198.30074709
_cell_formula_units_Z   16
loop_
 _symmetry_equiv_pos_site_id
 _symmetry_equiv_pos_as_xyz
  1  'x, y, z'
loop_
 _atom_site_type_symbol
 _atom_site_label
 _atom_site_symmetry_multiplicity
 _atom_site_fract_x
 _atom_site_fract_y
 _atom_site_fract_z
 _atom_site_occupancy
  Mo  Mo0  1  -0.00523644  7.54859000  3.78366000  1
  Mo  Mo1  1  2.02523000  2.30389000  0.26460600  1
  Mo  Mo2  1  2.02570000  0.55072500  2.04215000  1
  Mo  Mo3  1  -0.00807112  2.29729000  2.01350000  1
  Mo  Mo4  1  4.05581000  7.54618000  3.78053000  1
  Mo  Mo5  1  6.08984000  2.30200000  0.26503700  1
  Mo  Mo6  1  6.09700000  0.55405200  2.03990000  1
  Mo  Mo7  1  4.05950000  2.29651000  2.01110000  1
  Mo  Mo8  1  8.09863000  4.04969000  0.28273700  1
  Mo  Mo9  1  2.01513000  5.80288000  0.27700100  1
  Mo  Mo10  1  2.00490000  4.04672000  2.03024000  1
  Mo  Mo11  1  -0.01912430  5.79965000  2.02791000  1
  Mo  Mo12  1  4.04134000  4.05425000  0.27946700  1
  Mo  Mo13  1  6.08212000  5.80027000  3.76471000  1
  Mo  Mo14  1  6.07035000  4.05016000  2.02747000  1
  Mo  Mo15  1  4.04893000  5.79713000  2.01603000  1
