# generated using pymatgen
data_Mo
_symmetry_space_group_name_H-M   'P 1'
_cell_length_a   7.97529681
_cell_length_b   7.03228587
_cell_length_c   3.51645255
_cell_angle_alpha   90.00000000
_cell_angle_beta   90.00000000
_cell_angle_gamma   90.00000000
_symmetry_Int_Tables_number   1
_chemical_formula_structural   Mo
_chemical_formula_sum   Mo16
_cell_volume   197.21871900
_cell_formula_units_Z   16
loop_
 _symmetry_equiv_pos_site_id
 _symmetry_equiv_pos_as_xyz
  1  'x, y, z'
loop_
 _atom_site_type_symbol
 _atom_site_label
 _atom_site_symmetry_multiplicity
 _atom_site_fract_x
 _atom_site_fract_y
 _atom_site_fract_z
 _atom_site_occupancy
  Mo  Mo0  1  0.06559220  7.55746000  3.78123000  1
  Mo  Mo1  1  2.06010000  2.29254000  0.27028400  1
  Mo  Mo2  1  2.07302000  0.53871400  2.01796000  1
  Mo  Mo3  1  0.06376630  2.28529000  2.02681000  1
  Mo  Mo4  1  4.04472000  7.56455000  3.78822000  1
  Mo  Mo5  1  6.04218000  2.29333000  0.26752600  1
  Mo  Mo6  1  6.04990000  0.53831100  2.02164000  1
  Mo  Mo7  1  4.05384000  2.29422000  2.02584000  1
  Mo  Mo8  1  8.03907000  4.04955000  0.27332000  1
  Mo  Mo9  1  2.06229000  5.81741000  0.25829000  1
  Mo  Mo10  1  2.05317000  4.04828000  2.02637000  1
  Mo  Mo11  1  0.05987530  5.80858000  2.01362000  1
  Mo  Mo12  1  4.03752000  4.04434000  0.28012700  1
  Mo  Mo13  1  6.03236000  5.81166000  3.77888000  1
  Mo  Mo14  1  6.04185000  4.05421000  2.03068000  1
  Mo  Mo15  1  4.04544000  5.80156000  2.02275000  1
