# generated using pymatgen
data_Mo
_symmetry_space_group_name_H-M   'P 1'
_cell_length_a   8.33046611
_cell_length_b   6.92783087
_cell_length_c   3.46185660
_cell_angle_alpha   90.00000000
_cell_angle_beta   90.00000000
_cell_angle_gamma   90.00000000
_symmetry_Int_Tables_number   1
_chemical_formula_structural   Mo
_chemical_formula_sum   Mo16
_cell_volume   199.79087704
_cell_formula_units_Z   16
loop_
 _symmetry_equiv_pos_site_id
 _symmetry_equiv_pos_as_xyz
  1  'x, y, z'
loop_
 _atom_site_type_symbol
 _atom_site_label
 _atom_site_symmetry_multiplicity
 _atom_site_fract_x
 _atom_site_fract_y
 _atom_site_fract_z
 _atom_site_occupancy
  Mo  Mo0  1  1.97243000  2.32136000  0.28789400  1
  Mo  Mo1  1  1.97118000  0.58450400  2.02590000  1
  Mo  Mo2  1  -0.11595700  2.31857000  2.02398000  1
  Mo  Mo3  1  4.04560000  7.50997000  3.76313000  1
  Mo  Mo4  1  4.05058000  2.30752000  2.02207000  1
  Mo  Mo5  1  -0.11699100  4.04782000  3.76097000  1
  Mo  Mo6  1  1.96364000  5.79069000  0.28360700  1
  Mo  Mo7  1  1.97771000  4.04958000  2.04239000  1
  Mo  Mo8  1  -0.11986400  5.77444000  2.01730000  1
  Mo  Mo9  1  4.03916000  4.05521000  0.30038700  1
  Mo  Mo10  1  4.05223000  5.78115000  2.01126000  1
  Mo  Mo11  1  8.22529000  7.51565000  3.76210000  1
  Mo  Mo12  1  6.12215000  2.31389000  0.28817600  1
  Mo  Mo13  1  6.14056000  0.59094900  2.02600000  1
  Mo  Mo14  1  6.12541000  5.78943000  0.28108700  1
  Mo  Mo15  1  6.13639000  4.04927000  2.04192000  1
