# generated using pymatgen
data_Mo
_symmetry_space_group_name_H-M   'P 1'
_cell_length_a   8.59829925
_cell_length_b   6.85555792
_cell_length_c   3.42176747
_cell_angle_alpha   90.00000000
_cell_angle_beta   90.00000000
_cell_angle_gamma   90.00000000
_symmetry_Int_Tables_number   1
_chemical_formula_structural   Mo
_chemical_formula_sum   Mo16
_cell_volume   201.69997942
_cell_formula_units_Z   16
loop_
 _symmetry_equiv_pos_site_id
 _symmetry_equiv_pos_as_xyz
  1  'x, y, z'
loop_
 _atom_site_type_symbol
 _atom_site_label
 _atom_site_symmetry_multiplicity
 _atom_site_fract_x
 _atom_site_fract_y
 _atom_site_fract_z
 _atom_site_occupancy
  Mo  Mo0  1  1.89700000  2.34092000  0.31442500  1
  Mo  Mo1  1  1.90615000  0.62893600  2.02410000  1
  Mo  Mo2  1  -0.25408400  2.32231000  2.02077000  1
  Mo  Mo3  1  4.04213000  7.47153000  3.73993000  1
  Mo  Mo4  1  4.05113000  2.33016000  2.02803000  1
  Mo  Mo5  1  -0.24760000  4.04261000  3.74912000  1
  Mo  Mo6  1  1.90167000  5.77432000  0.30087600  1
  Mo  Mo7  1  1.90749000  4.05676000  2.02803000  1
  Mo  Mo8  1  -0.25478600  5.75858000  2.00804000  1
  Mo  Mo9  1  4.04297000  4.04503000  0.33328300  1
  Mo  Mo10  1  4.05297000  5.75552000  2.02386000  1
  Mo  Mo11  1  8.35216000  7.47159000  3.73389000  1
  Mo  Mo12  1  6.19470000  2.34590000  0.31537800  1
  Mo  Mo13  1  6.21248000  0.62378500  2.02271000  1
  Mo  Mo14  1  6.19030000  5.77911000  0.30727900  1
  Mo  Mo15  1  6.20702000  4.05293000  2.02852000  1
