# generated using pymatgen
data_Mo
_symmetry_space_group_name_H-M   'P 1'
_cell_length_a   8.38432382
_cell_length_b   6.90579247
_cell_length_c   3.45668483
_cell_angle_alpha   90.00000000
_cell_angle_beta   90.00000000
_cell_angle_gamma   90.00000000
_symmetry_Int_Tables_number   1
_chemical_formula_structural   Mo
_chemical_formula_sum   Mo16
_cell_volume   200.14343540
_cell_formula_units_Z   16
loop_
 _symmetry_equiv_pos_site_id
 _symmetry_equiv_pos_as_xyz
  1  'x, y, z'
loop_
 _atom_site_type_symbol
 _atom_site_label
 _atom_site_symmetry_multiplicity
 _atom_site_fract_x
 _atom_site_fract_y
 _atom_site_fract_z
 _atom_site_occupancy
  Mo  Mo0  1  1.94154000  2.31589000  0.30644400  1
  Mo  Mo1  1  1.95647000  0.60285700  2.02222000  1
  Mo  Mo2  1  -0.14663300  2.31803000  2.03060000  1
  Mo  Mo3  1  4.04422000  7.50020000  3.74077000  1
  Mo  Mo4  1  4.05801000  2.33113000  2.02800000  1
  Mo  Mo5  1  -0.13303100  4.05161000  3.76247000  1
  Mo  Mo6  1  1.95176000  5.77707000  0.29516600  1
  Mo  Mo7  1  1.95076000  4.05080000  2.02425000  1
  Mo  Mo8  1  -0.14589500  5.78416000  2.02080000  1
  Mo  Mo9  1  4.05290000  4.04619000  0.29903700  1
  Mo  Mo10  1  4.05609000  5.77402000  2.02317000  1
  Mo  Mo11  1  8.23926000  7.49843000  3.74745000  1
  Mo  Mo12  1  6.14322000  2.32405000  0.30467600  1
  Mo  Mo13  1  6.15803000  0.59502600  2.01958000  1
  Mo  Mo14  1  6.13729000  5.78063000  0.29679700  1
  Mo  Mo15  1  6.15168000  4.04989000  2.02189000  1
