# generated using pymatgen
data_Mo
_symmetry_space_group_name_H-M   'P 1'
_cell_length_a   8.46875001
_cell_length_b   6.89647907
_cell_length_c   3.43691301
_cell_angle_alpha   90.00000000
_cell_angle_beta   90.00000000
_cell_angle_gamma   90.00000000
_symmetry_Int_Tables_number   1
_chemical_formula_structural   Mo
_chemical_formula_sum   Mo16
_cell_volume   200.73138278
_cell_formula_units_Z   16
loop_
 _symmetry_equiv_pos_site_id
 _symmetry_equiv_pos_as_xyz
  1  'x, y, z'
loop_
 _atom_site_type_symbol
 _atom_site_label
 _atom_site_symmetry_multiplicity
 _atom_site_fract_x
 _atom_site_fract_y
 _atom_site_fract_z
 _atom_site_occupancy
  Mo  Mo0  1  1.93195000  2.32467000  0.29553000  1
  Mo  Mo1  1  1.92585000  0.60028400  2.03434000  1
  Mo  Mo2  1  -0.19165700  2.32982000  2.01598000  1
  Mo  Mo3  1  4.03597000  7.49752000  3.75358000  1
  Mo  Mo4  1  4.04274000  2.32225000  2.01923000  1
  Mo  Mo5  1  -0.17729600  4.05151000  3.74258000  1
  Mo  Mo6  1  1.93298000  5.76910000  0.29744900  1
  Mo  Mo7  1  1.95334000  4.05164000  2.03692000  1
  Mo  Mo8  1  -0.18420200  5.76557000  2.01328000  1
  Mo  Mo9  1  4.05373000  4.05669000  0.30621800  1
  Mo  Mo10  1  4.05592000  5.77917000  2.02554000  1
  Mo  Mo11  1  8.27973000  7.50338000  3.75317000  1
  Mo  Mo12  1  6.15386000  2.32773000  0.29548000  1
  Mo  Mo13  1  6.16533000  0.59900700  2.03345000  1
  Mo  Mo14  1  6.16938000  5.77836000  0.30306600  1
  Mo  Mo15  1  6.18363000  4.04329000  2.03728000  1
