# generated using pymatgen
data_Mo
_symmetry_space_group_name_H-M   'P 1'
_cell_length_a   8.70601469
_cell_length_b   6.85088497
_cell_length_c   3.39674568
_cell_angle_alpha   90.00000000
_cell_angle_beta   90.00000000
_cell_angle_gamma   90.00000000
_symmetry_Int_Tables_number   1
_chemical_formula_structural   Mo
_chemical_formula_sum   Mo16
_cell_volume   202.59517758
_cell_formula_units_Z   16
loop_
 _symmetry_equiv_pos_site_id
 _symmetry_equiv_pos_as_xyz
  1  'x, y, z'
loop_
 _atom_site_type_symbol
 _atom_site_label
 _atom_site_symmetry_multiplicity
 _atom_site_fract_x
 _atom_site_fract_y
 _atom_site_fract_z
 _atom_site_occupancy
  Mo  Mo0  1  1.87574000  2.33388000  0.32448400  1
  Mo  Mo1  1  1.87095000  0.62363200  2.02618000  1
  Mo  Mo2  1  -0.30610100  2.33222000  2.02616000  1
  Mo  Mo3  1  4.06470000  7.47575000  3.72609000  1
  Mo  Mo4  1  4.06457000  2.33947000  2.02033000  1
  Mo  Mo5  1  -0.31441000  4.05190000  3.72263000  1
  Mo  Mo6  1  1.87121000  5.76813000  0.32815700  1
  Mo  Mo7  1  1.85515000  4.04498000  2.03187000  1
  Mo  Mo8  1  -0.31417000  5.77071000  2.02602000  1
  Mo  Mo9  1  4.03302000  4.05116000  0.31867700  1
  Mo  Mo10  1  4.05336000  5.76122000  2.02143000  1
  Mo  Mo11  1  8.41742000  7.47508000  3.73321000  1
  Mo  Mo12  1  6.24151000  2.33736000  0.32275300  1
  Mo  Mo13  1  6.23211000  0.62042600  2.02104000  1
  Mo  Mo14  1  6.22228000  5.76813000  0.32701600  1
  Mo  Mo15  1  6.22664000  4.04594000  2.02720000  1
