# generated using pymatgen
data_Mo
_symmetry_space_group_name_H-M   'P 1'
_cell_length_a   8.50950669
_cell_length_b   6.86125624
_cell_length_c   3.44291353
_cell_angle_alpha   90.00000000
_cell_angle_beta   90.00000000
_cell_angle_gamma   90.00000000
_symmetry_Int_Tables_number   1
_chemical_formula_structural   Mo
_chemical_formula_sum   Mo16
_cell_volume   201.01762543
_cell_formula_units_Z   16
loop_
 _symmetry_equiv_pos_site_id
 _symmetry_equiv_pos_as_xyz
  1  'x, y, z'
loop_
 _atom_site_type_symbol
 _atom_site_label
 _atom_site_symmetry_multiplicity
 _atom_site_fract_x
 _atom_site_fract_y
 _atom_site_fract_z
 _atom_site_occupancy
  Mo  Mo0  1  1.92080000  2.33679000  0.29825200  1
  Mo  Mo1  1  1.90993000  0.62585100  2.02079000  1
  Mo  Mo2  1  -0.21493200  2.32747000  2.02551000  1
  Mo  Mo3  1  4.04242000  7.47799000  3.74930000  1
  Mo  Mo4  1  4.04844000  2.32461000  2.03434000  1
  Mo  Mo5  1  -0.20154600  4.04761000  3.75175000  1
  Mo  Mo6  1  1.92295000  5.77109000  0.29081500  1
  Mo  Mo7  1  1.92967000  4.05641000  2.03755000  1
  Mo  Mo8  1  -0.20460200  5.75325000  2.01623000  1
  Mo  Mo9  1  4.05314000  4.04696000  0.31044200  1
  Mo  Mo10  1  4.05751000  5.76101000  2.02191000  1
  Mo  Mo11  1  8.29611000  7.47891000  3.74764000  1
  Mo  Mo12  1  6.17622000  2.34141000  0.30112700  1
  Mo  Mo13  1  6.17140000  0.62277000  2.02210000  1
  Mo  Mo14  1  6.18833000  5.77624000  0.29164000  1
  Mo  Mo15  1  6.19465000  4.05163000  2.03769000  1
