# generated using pymatgen
data_Mo
_symmetry_space_group_name_H-M   'P 1'
_cell_length_a   7.45855483
_cell_length_b   7.20427054
_cell_length_c   3.60394406
_cell_angle_alpha   90.00000000
_cell_angle_beta   90.00000000
_cell_angle_gamma   90.00000000
_symmetry_Int_Tables_number   1
_chemical_formula_structural   Mo
_chemical_formula_sum   Mo16
_cell_volume   193.65233686
_cell_formula_units_Z   16
loop_
 _symmetry_equiv_pos_site_id
 _symmetry_equiv_pos_as_xyz
  1  'x, y, z'
loop_
 _atom_site_type_symbol
 _atom_site_label
 _atom_site_symmetry_multiplicity
 _atom_site_fract_x
 _atom_site_fract_y
 _atom_site_fract_z
 _atom_site_occupancy
  Mo  Mo0  1  0.31886900  7.65066000  3.82038000  1
  Mo  Mo1  1  2.18093000  2.26136000  0.22438400  1
  Mo  Mo2  1  2.16322000  0.44946600  2.02462000  1
  Mo  Mo3  1  0.31778700  2.24861000  2.02482000  1
  Mo  Mo4  1  4.04468000  7.64211000  3.82895000  1
  Mo  Mo5  1  5.91189000  2.25194000  0.22420200  1
  Mo  Mo6  1  5.91605000  0.45607600  2.02803000  1
  Mo  Mo7  1  4.05028000  2.24476000  2.02525000  1
  Mo  Mo8  1  7.77918000  4.03752000  0.21834400  1
  Mo  Mo9  1  2.18223000  5.85164000  0.22544500  1
  Mo  Mo10  1  2.19773000  4.05556000  2.01391000  1
  Mo  Mo11  1  0.32052100  5.84550000  2.02712000  1
  Mo  Mo12  1  4.05467000  4.04961000  0.22686500  1
  Mo  Mo13  1  5.92020000  5.85069000  3.83291000  1
  Mo  Mo14  1  5.91984000  4.05688000  2.01775000  1
  Mo  Mo15  1  4.06336000  5.84763000  2.03308000  1
