# generated using pymatgen
data_Mo
_symmetry_space_group_name_H-M   'P 1'
_cell_length_a   7.69145314
_cell_length_b   7.12350875
_cell_length_c   3.56150079
_cell_angle_alpha   90.00000000
_cell_angle_beta   90.00000000
_cell_angle_gamma   90.00000000
_symmetry_Int_Tables_number   1
_chemical_formula_structural   Mo
_chemical_formula_sum   Mo16
_cell_volume   195.13510462
_cell_formula_units_Z   16
loop_
 _symmetry_equiv_pos_site_id
 _symmetry_equiv_pos_as_xyz
  1  'x, y, z'
loop_
 _atom_site_type_symbol
 _atom_site_label
 _atom_site_symmetry_multiplicity
 _atom_site_fract_x
 _atom_site_fract_y
 _atom_site_fract_z
 _atom_site_occupancy
  Mo  Mo0  1  0.19770300  7.61043000  3.81030000  1
  Mo  Mo1  1  2.12298000  2.28168000  0.24436900  1
  Mo  Mo2  1  2.12302000  0.49219100  2.02132000  1
  Mo  Mo3  1  0.20080300  2.26786000  2.02739000  1
  Mo  Mo4  1  4.04331000  7.60015000  3.80740000  1
  Mo  Mo5  1  5.97154000  2.27621000  0.24252800  1
  Mo  Mo6  1  5.99146000  0.49591400  2.02099000  1
  Mo  Mo7  1  4.04764000  2.26248000  2.02474000  1
  Mo  Mo8  1  7.89685000  4.04092000  0.25800200  1
  Mo  Mo9  1  2.12285000  5.83397000  0.23309400  1
  Mo  Mo10  1  2.13242000  4.05591000  2.03702000  1
  Mo  Mo11  1  0.19563200  5.81884000  2.01542000  1
  Mo  Mo12  1  4.05909000  4.04902000  0.25515200  1
  Mo  Mo13  1  5.97857000  5.83806000  3.79226000  1
  Mo  Mo14  1  5.97232000  4.05275000  2.03655000  1
  Mo  Mo15  1  4.05237000  5.82362000  2.01197000  1
