# generated using pymatgen
data_Mo
_symmetry_space_group_name_H-M   'P 1'
_cell_length_a   7.98548694
_cell_length_b   7.03038818
_cell_length_c   3.51437402
_cell_angle_alpha   90.00000000
_cell_angle_beta   90.00000000
_cell_angle_gamma   90.00000000
_symmetry_Int_Tables_number   1
_chemical_formula_structural   Mo
_chemical_formula_sum   Mo16
_cell_volume   197.30072815
_cell_formula_units_Z   16
loop_
 _symmetry_equiv_pos_site_id
 _symmetry_equiv_pos_as_xyz
  1  'x, y, z'
loop_
 _atom_site_type_symbol
 _atom_site_label
 _atom_site_symmetry_multiplicity
 _atom_site_fract_x
 _atom_site_fract_y
 _atom_site_fract_z
 _atom_site_occupancy
  Mo  Mo0  1  0.05174710  7.57257000  3.77571000  1
  Mo  Mo1  1  2.05030000  2.28387000  0.26602500  1
  Mo  Mo2  1  2.02846000  0.53040100  2.02614000  1
  Mo  Mo3  1  0.05146420  2.29968000  2.02219000  1
  Mo  Mo4  1  4.04691000  7.56976000  3.77990000  1
  Mo  Mo5  1  6.04907000  2.28355000  0.27182300  1
  Mo  Mo6  1  6.03423000  0.52919600  2.02706000  1
  Mo  Mo7  1  4.04664000  2.29577000  2.03173000  1
  Mo  Mo8  1  8.04734000  4.05369000  0.24939800  1
  Mo  Mo9  1  2.05658000  5.79797000  0.27768000  1
  Mo  Mo10  1  2.05857000  4.04992000  2.01735000  1
  Mo  Mo11  1  0.05974680  5.81203000  2.03305000  1
  Mo  Mo12  1  4.06227000  4.05697000  0.25362300  1
  Mo  Mo13  1  6.05903000  5.80408000  3.79582000  1
  Mo  Mo14  1  6.05221000  4.04295000  2.01829000  1
  Mo  Mo15  1  4.05993000  5.81760000  2.03983000  1
