# generated using pymatgen
data_Mo
_symmetry_space_group_name_H-M   'P 1'
_cell_length_a   7.74094354
_cell_length_b   7.10799450
_cell_length_c   3.55283713
_cell_angle_alpha   90.00000000
_cell_angle_beta   90.00000000
_cell_angle_gamma   90.00000000
_symmetry_Int_Tables_number   1
_chemical_formula_structural   Mo
_chemical_formula_sum   Mo16
_cell_volume   195.48627981
_cell_formula_units_Z   16
loop_
 _symmetry_equiv_pos_site_id
 _symmetry_equiv_pos_as_xyz
  1  'x, y, z'
loop_
 _atom_site_type_symbol
 _atom_site_label
 _atom_site_symmetry_multiplicity
 _atom_site_fract_x
 _atom_site_fract_y
 _atom_site_fract_z
 _atom_site_occupancy
  Mo  Mo0  1  0.18551900  7.60571000  3.82561000  1
  Mo  Mo1  1  2.12097000  2.28054000  0.23630400  1
  Mo  Mo2  1  2.11853000  0.49907000  2.03604000  1
  Mo  Mo3  1  0.18654200  2.27078000  2.01749000  1
  Mo  Mo4  1  4.06525000  7.59752000  3.81486000  1
  Mo  Mo5  1  5.99481000  2.28389000  0.23118400  1
  Mo  Mo6  1  5.99664000  0.49723300  2.03037000  1
  Mo  Mo7  1  4.05036000  2.26189000  2.00887000  1
  Mo  Mo8  1  7.90480000  4.04377000  0.25433700  1
  Mo  Mo9  1  2.10395000  5.82627000  0.24351600  1
  Mo  Mo10  1  2.10375000  4.05980000  2.03442000  1
  Mo  Mo11  1  0.17356000  5.81376000  2.01926000  1
  Mo  Mo12  1  4.05015000  4.04779000  0.24372400  1
  Mo  Mo13  1  5.99195000  5.83725000  3.79896000  1
  Mo  Mo14  1  5.96976000  4.04981000  2.02985000  1
  Mo  Mo15  1  4.04253000  5.82492000  2.02237000  1
