# generated using pymatgen
data_Mo
_symmetry_space_group_name_H-M   'P 1'
_cell_length_a   7.51095709
_cell_length_b   7.18752494
_cell_length_c   3.59295726
_cell_angle_alpha   90.00000000
_cell_angle_beta   90.00000000
_cell_angle_gamma   90.00000000
_symmetry_Int_Tables_number   1
_chemical_formula_structural   Mo
_chemical_formula_sum   Mo16
_cell_volume   193.96648548
_cell_formula_units_Z   16
loop_
 _symmetry_equiv_pos_site_id
 _symmetry_equiv_pos_as_xyz
  1  'x, y, z'
loop_
 _atom_site_type_symbol
 _atom_site_label
 _atom_site_symmetry_multiplicity
 _atom_site_fract_x
 _atom_site_fract_y
 _atom_site_fract_z
 _atom_site_occupancy
  Mo  Mo0  1  0.30578600  7.64043000  3.81961000  1
  Mo  Mo1  1  2.18238000  2.25977000  0.23812900  1
  Mo  Mo2  1  2.18203000  0.45834300  2.01838000  1
  Mo  Mo3  1  0.29951000  2.25340000  2.03442000  1
  Mo  Mo4  1  4.05346000  7.63405000  3.81229000  1
  Mo  Mo5  1  5.92677000  2.25501000  0.23402900  1
  Mo  Mo6  1  5.94323000  0.46470500  2.01600000  1
  Mo  Mo7  1  4.05559000  2.24485000  2.02604000  1
  Mo  Mo8  1  7.79410000  4.04053000  0.23982600  1
  Mo  Mo9  1  2.16573000  5.85236000  0.22909500  1
  Mo  Mo10  1  2.16883000  4.05603000  2.02620000  1
  Mo  Mo11  1  0.28734300  5.83990000  2.02746000  1
  Mo  Mo12  1  4.03497000  4.04538000  0.23236600  1
  Mo  Mo13  1  5.92252000  5.85288000  3.81501000  1
  Mo  Mo14  1  5.91920000  4.05640000  2.02344000  1
  Mo  Mo15  1  4.04760000  5.84597000  2.01475000  1
