# generated using pymatgen
data_Mo
_symmetry_space_group_name_H-M   'P 1'
_cell_length_a   7.94327385
_cell_length_b   7.04273444
_cell_length_c   3.52111912
_cell_angle_alpha   90.00000000
_cell_angle_beta   90.00000000
_cell_angle_gamma   90.00000000
_symmetry_Int_Tables_number   1
_chemical_formula_structural   Mo
_chemical_formula_sum   Mo16
_cell_volume   196.97974266
_cell_formula_units_Z   16
loop_
 _symmetry_equiv_pos_site_id
 _symmetry_equiv_pos_as_xyz
  1  'x, y, z'
loop_
 _atom_site_type_symbol
 _atom_site_label
 _atom_site_symmetry_multiplicity
 _atom_site_fract_x
 _atom_site_fract_y
 _atom_site_fract_z
 _atom_site_occupancy
  Mo  Mo0  1  0.07615440  7.56613000  3.78665000  1
  Mo  Mo1  1  2.06037000  2.29818000  0.25444900  1
  Mo  Mo2  1  2.06518000  0.53275900  2.02869000  1
  Mo  Mo3  1  0.07847580  2.28767000  2.01427000  1
  Mo  Mo4  1  4.04577000  7.56759000  3.79451000  1
  Mo  Mo5  1  6.02631000  2.29728000  0.26225400  1
  Mo  Mo6  1  6.03232000  0.53298900  2.03154000  1
  Mo  Mo7  1  4.04383000  2.28225000  2.02689000  1
  Mo  Mo8  1  8.02204000  4.04720000  0.27271900  1
  Mo  Mo9  1  2.06137000  5.81566000  0.25130700  1
  Mo  Mo10  1  2.07970000  4.05412000  2.03261000  1
  Mo  Mo11  1  0.08355440  5.79696000  2.01224000  1
  Mo  Mo12  1  4.05236000  4.04822000  0.28080500  1
  Mo  Mo13  1  6.03266000  5.81961000  3.77594000  1
  Mo  Mo14  1  6.04592000  4.04912000  2.03493000  1
  Mo  Mo15  1  4.05071000  5.80426000  2.01908000  1
