# generated using pymatgen
data_Mo
_symmetry_space_group_name_H-M   'P 1'
_cell_length_a   8.65361243
_cell_length_b   6.83753049
_cell_length_c   3.41657567
_cell_angle_alpha   90.00000000
_cell_angle_beta   90.00000000
_cell_angle_gamma   90.00000000
_symmetry_Int_Tables_number   1
_chemical_formula_structural   Mo
_chemical_formula_sum   Mo16
_cell_volume   202.15652372
_cell_formula_units_Z   16
loop_
 _symmetry_equiv_pos_site_id
 _symmetry_equiv_pos_as_xyz
  1  'x, y, z'
loop_
 _atom_site_type_symbol
 _atom_site_label
 _atom_site_symmetry_multiplicity
 _atom_site_fract_x
 _atom_site_fract_y
 _atom_site_fract_z
 _atom_site_occupancy
  Mo  Mo0  1  1.89507000  2.33136000  0.32708400  1
  Mo  Mo1  1  1.88933000  0.63462200  2.01141000  1
  Mo  Mo2  1  -0.26851700  2.33745000  2.03524000  1
  Mo  Mo3  1  4.06779000  7.46697000  3.72684000  1
  Mo  Mo4  1  4.04935000  2.34649000  2.03653000  1
  Mo  Mo5  1  -0.29401500  4.05064000  3.72646000  1
  Mo  Mo6  1  1.88510000  5.75794000  0.31946600  1
  Mo  Mo7  1  1.87626000  4.05029000  2.02989000  1
  Mo  Mo8  1  -0.27683400  5.76467000  2.02464000  1
  Mo  Mo9  1  4.04225000  4.05551000  0.31167500  1
  Mo  Mo10  1  4.04128000  5.75858000  2.02543000  1
  Mo  Mo11  1  8.38349000  7.47155000  3.72546000  1
  Mo  Mo12  1  6.22909000  2.33163000  0.32486500  1
  Mo  Mo13  1  6.21632000  0.63309500  2.01169000  1
  Mo  Mo14  1  6.21696000  5.75604000  0.31675100  1
  Mo  Mo15  1  6.19346000  4.05317000  2.03000000  1
