# generated using pymatgen
data_Mo
_symmetry_space_group_name_H-M   'P 1'
_cell_length_a   8.57646450
_cell_length_b   6.84973645
_cell_length_c   3.43044209
_cell_angle_alpha   90.00000000
_cell_angle_beta   90.00000000
_cell_angle_gamma   90.00000000
_symmetry_Int_Tables_number   1
_chemical_formula_structural   Mo
_chemical_formula_sum   Mo16
_cell_volume   201.52654043
_cell_formula_units_Z   16
loop_
 _symmetry_equiv_pos_site_id
 _symmetry_equiv_pos_as_xyz
  1  'x, y, z'
loop_
 _atom_site_type_symbol
 _atom_site_label
 _atom_site_symmetry_multiplicity
 _atom_site_fract_x
 _atom_site_fract_y
 _atom_site_fract_z
 _atom_site_occupancy
  Mo  Mo0  1  1.91484000  2.33784000  0.30349700  1
  Mo  Mo1  1  1.91001000  0.62165000  2.03321000  1
  Mo  Mo2  1  -0.23311900  2.33728000  2.01713000  1
  Mo  Mo3  1  4.03923000  7.47464000  3.74281000  1
  Mo  Mo4  1  4.04419000  2.33748000  2.01412000  1
  Mo  Mo5  1  -0.23507800  4.05063000  3.75093000  1
  Mo  Mo6  1  1.91421000  5.75587000  0.30864500  1
  Mo  Mo7  1  1.91070000  4.05083000  2.02797000  1
  Mo  Mo8  1  -0.23995900  5.76426000  2.02403000  1
  Mo  Mo9  1  4.05154000  4.05644000  0.30852800  1
  Mo  Mo10  1  4.04378000  5.76259000  2.01675000  1
  Mo  Mo11  1  8.33342000  7.48525000  3.75430000  1
  Mo  Mo12  1  6.19402000  2.34192000  0.30539700  1
  Mo  Mo13  1  6.19944000  0.61666500  2.02986000  1
  Mo  Mo14  1  6.19904000  5.76281000  0.30826700  1
  Mo  Mo15  1  6.17725000  4.04385000  2.02412000  1
