# generated using pymatgen
data_Mo
_symmetry_space_group_name_H-M   'P 1'
_cell_length_a   7.42507595
_cell_length_b   7.21875885
_cell_length_c   3.60956645
_cell_angle_alpha   90.00000000
_cell_angle_beta   90.00000000
_cell_angle_gamma   90.00000000
_symmetry_Int_Tables_number   1
_chemical_formula_structural   Mo
_chemical_formula_sum   Mo16
_cell_volume   193.47215793
_cell_formula_units_Z   16
loop_
 _symmetry_equiv_pos_site_id
 _symmetry_equiv_pos_as_xyz
  1  'x, y, z'
loop_
 _atom_site_type_symbol
 _atom_site_label
 _atom_site_symmetry_multiplicity
 _atom_site_fract_x
 _atom_site_fract_y
 _atom_site_fract_z
 _atom_site_occupancy
  Mo  Mo0  1  0.33792400  7.66600000  3.83755000  1
  Mo  Mo1  1  2.18812000  2.23782000  0.21037600  1
  Mo  Mo2  1  2.20672000  0.43663100  2.03297000  1
  Mo  Mo3  1  0.33630600  2.24569000  2.01508000  1
  Mo  Mo4  1  4.04753000  7.67054000  3.83424000  1
  Mo  Mo5  1  5.89782000  2.24662000  0.21484700  1
  Mo  Mo6  1  5.90843000  0.42877000  2.03199000  1
  Mo  Mo7  1  4.05823000  2.24855000  2.02296000  1
  Mo  Mo8  1  7.77161000  4.06204000  0.22537500  1
  Mo  Mo9  1  2.18933000  5.84821000  0.21092300  1
  Mo  Mo10  1  2.18592000  4.04519000  2.04422000  1
  Mo  Mo11  1  0.33787300  5.85993000  2.01480000  1
  Mo  Mo12  1  4.04894000  4.05385000  0.22224700  1
  Mo  Mo13  1  5.89699000  5.84913000  3.81808000  1
  Mo  Mo14  1  5.91205000  4.04199000  2.04233000  1
  Mo  Mo15  1  4.05113000  5.85906000  2.01245000  1
