# generated using pymatgen
data_Mo
_symmetry_space_group_name_H-M   'P 1'
_cell_length_a   8.47311638
_cell_length_b   6.87956947
_cell_length_c   3.44399786
_cell_angle_alpha   90.00000000
_cell_angle_beta   90.00000000
_cell_angle_gamma   90.00000000
_symmetry_Int_Tables_number   1
_chemical_formula_structural   Mo
_chemical_formula_sum   Mo16
_cell_volume   200.75543203
_cell_formula_units_Z   16
loop_
 _symmetry_equiv_pos_site_id
 _symmetry_equiv_pos_as_xyz
  1  'x, y, z'
loop_
 _atom_site_type_symbol
 _atom_site_label
 _atom_site_symmetry_multiplicity
 _atom_site_fract_x
 _atom_site_fract_y
 _atom_site_fract_z
 _atom_site_occupancy
  Mo  Mo0  1  1.93132000  2.33266000  0.30029200  1
  Mo  Mo1  1  1.93381000  0.61923900  2.02444000  1
  Mo  Mo2  1  -0.19026400  2.32832000  2.02219000  1
  Mo  Mo3  1  4.03172000  7.48131000  3.74691000  1
  Mo  Mo4  1  4.04728000  2.32986000  2.03392000  1
  Mo  Mo5  1  -0.17393900  4.04293000  3.74970000  1
  Mo  Mo6  1  1.93733000  5.76946000  0.29544700  1
  Mo  Mo7  1  1.94695000  4.05758000  2.02779000  1
  Mo  Mo8  1  -0.18774000  5.76000000  2.01833000  1
  Mo  Mo9  1  4.04988000  4.05070000  0.31146200  1
  Mo  Mo10  1  4.05366000  5.76198000  2.02656000  1
  Mo  Mo11  1  8.28340000  7.48657000  3.74147000  1
  Mo  Mo12  1  6.15390000  2.33557000  0.30606000  1
  Mo  Mo13  1  6.17446000  0.61585300  2.02482000  1
  Mo  Mo14  1  6.16278000  5.77419000  0.29849500  1
  Mo  Mo15  1  6.17235000  4.05378000  2.02813000  1
