# generated using pymatgen
data_Mo
_symmetry_space_group_name_H-M   'P 1'
_cell_length_a   7.93890651
_cell_length_b   7.04381204
_cell_length_c   3.52191091
_cell_angle_alpha   90.00000000
_cell_angle_beta   90.00000000
_cell_angle_gamma   90.00000000
_symmetry_Int_Tables_number   1
_chemical_formula_structural   Mo
_chemical_formula_sum   Mo16
_cell_volume   196.94583986
_cell_formula_units_Z   16
loop_
 _symmetry_equiv_pos_site_id
 _symmetry_equiv_pos_as_xyz
  1  'x, y, z'
loop_
 _atom_site_type_symbol
 _atom_site_label
 _atom_site_symmetry_multiplicity
 _atom_site_fract_x
 _atom_site_fract_y
 _atom_site_fract_z
 _atom_site_occupancy
  Mo  Mo0  1  0.08042340  7.57220000  3.78423000  1
  Mo  Mo1  1  2.05916000  2.28987000  0.26654700  1
  Mo  Mo2  1  2.06688000  0.52946900  2.01407000  1
  Mo  Mo3  1  0.08066730  2.28763000  2.01933000  1
  Mo  Mo4  1  4.06135000  7.57298000  3.78682000  1
  Mo  Mo5  1  6.04226000  2.29659000  0.27624500  1
  Mo  Mo6  1  6.03930000  0.52162600  2.01550000  1
  Mo  Mo7  1  4.04478000  2.29657000  2.03635000  1
  Mo  Mo8  1  8.00699000  4.05210000  0.26587000  1
  Mo  Mo9  1  2.06006000  5.80530000  0.26154200  1
  Mo  Mo10  1  2.07344000  4.04976000  2.03378000  1
  Mo  Mo11  1  0.07992820  5.81159000  2.01321000  1
  Mo  Mo12  1  4.04789000  4.05046000  0.26883000  1
  Mo  Mo13  1  6.03282000  5.81129000  3.78421000  1
  Mo  Mo14  1  6.04049000  4.04480000  2.03417000  1
  Mo  Mo15  1  4.04464000  5.80776000  2.01738000  1
