# generated using pymatgen
data_Mo
_symmetry_space_group_name_H-M   'P 1'
_cell_length_a   8.27952026
_cell_length_b   6.93964523
_cell_length_c   3.47119164
_cell_angle_alpha   90.00000000
_cell_angle_beta   90.00000000
_cell_angle_gamma   90.00000000
_symmetry_Int_Tables_number   1
_chemical_formula_structural   Mo
_chemical_formula_sum   Mo16
_cell_volume   199.44402671
_cell_formula_units_Z   16
loop_
 _symmetry_equiv_pos_site_id
 _symmetry_equiv_pos_as_xyz
  1  'x, y, z'
loop_
 _atom_site_type_symbol
 _atom_site_label
 _atom_site_symmetry_multiplicity
 _atom_site_fract_x
 _atom_site_fract_y
 _atom_site_fract_z
 _atom_site_occupancy
  Mo  Mo0  1  1.98043000  2.31560000  0.27972300  1
  Mo  Mo1  1  1.98466000  0.58839600  2.03068000  1
  Mo  Mo2  1  -0.09486210  2.30491000  2.01350000  1
  Mo  Mo3  1  4.03936000  7.51960000  3.76713000  1
  Mo  Mo4  1  4.04667000  2.30901000  2.02725000  1
  Mo  Mo5  1  -0.08235820  4.05027000  3.75611000  1
  Mo  Mo6  1  1.98746000  5.79117000  0.29081200  1
  Mo  Mo7  1  1.99026000  4.05786000  2.01564000  1
  Mo  Mo8  1  -0.08423550  5.77770000  2.02727000  1
  Mo  Mo9  1  4.04601000  4.04107000  0.28955700  1
  Mo  Mo10  1  4.05068000  5.77949000  2.03685000  1
  Mo  Mo11  1  8.18625000  7.51157000  3.76294000  1
  Mo  Mo12  1  6.11210000  2.32335000  0.28624900  1
  Mo  Mo13  1  6.10630000  0.58170100  2.03326000  1
  Mo  Mo14  1  6.11649000  5.79456000  0.29449900  1
  Mo  Mo15  1  6.13527000  4.05373000  2.01732000  1
