# generated using pymatgen
data_Mo
_symmetry_space_group_name_H-M   'P 1'
_cell_length_a   7.87922696
_cell_length_b   7.06298751
_cell_length_c   3.53083515
_cell_angle_alpha   90.00000000
_cell_angle_beta   90.00000000
_cell_angle_gamma   90.00000000
_symmetry_Int_Tables_number   1
_chemical_formula_structural   Mo
_chemical_formula_sum   Mo16
_cell_volume   196.49408890
_cell_formula_units_Z   16
loop_
 _symmetry_equiv_pos_site_id
 _symmetry_equiv_pos_as_xyz
  1  'x, y, z'
loop_
 _atom_site_type_symbol
 _atom_site_label
 _atom_site_symmetry_multiplicity
 _atom_site_fract_x
 _atom_site_fract_y
 _atom_site_fract_z
 _atom_site_occupancy
  Mo  Mo0  1  0.10387300  7.58111000  3.78544000  1
  Mo  Mo1  1  2.07401000  2.27871000  0.26737500  1
  Mo  Mo2  1  2.06980000  0.51596000  2.02248000  1
  Mo  Mo3  1  0.10572800  2.29523000  2.02851000  1
  Mo  Mo4  1  4.05540000  7.58330000  3.78338000  1
  Mo  Mo5  1  6.02091000  2.27965000  0.26703500  1
  Mo  Mo6  1  6.00617000  0.51614900  2.02054000  1
  Mo  Mo7  1  4.04760000  2.28992000  2.02550000  1
  Mo  Mo8  1  7.99187000  4.05354000  0.25495300  1
  Mo  Mo9  1  2.07544000  5.81048000  0.27145500  1
  Mo  Mo10  1  2.07897000  4.04641000  2.01215000  1
  Mo  Mo11  1  0.11561600  5.82043000  2.03410000  1
  Mo  Mo12  1  4.06190000  4.05137000  0.25282700  1
  Mo  Mo13  1  6.02998000  5.80847000  3.80168000  1
  Mo  Mo14  1  6.03089000  4.04639000  2.01060000  1
  Mo  Mo15  1  4.05263000  5.82288000  2.03113000  1
