# generated using pymatgen
data_Mo
_symmetry_space_group_name_H-M   'P 1'
_cell_length_a   8.39888033
_cell_length_b   6.90758073
_cell_length_c   3.45167089
_cell_angle_alpha   90.00000000
_cell_angle_beta   90.00000000
_cell_angle_gamma   90.00000000
_symmetry_Int_Tables_number   1
_chemical_formula_structural   Mo
_chemical_formula_sum   Mo16
_cell_volume   200.25194466
_cell_formula_units_Z   16
loop_
 _symmetry_equiv_pos_site_id
 _symmetry_equiv_pos_as_xyz
  1  'x, y, z'
loop_
 _atom_site_type_symbol
 _atom_site_label
 _atom_site_symmetry_multiplicity
 _atom_site_fract_x
 _atom_site_fract_y
 _atom_site_fract_z
 _atom_site_occupancy
  Mo  Mo0  1  1.95669000  2.33113000  0.28660200  1
  Mo  Mo1  1  1.93918000  0.58826900  2.02699000  1
  Mo  Mo2  1  -0.14284900  2.32748000  2.00871000  1
  Mo  Mo3  1  4.04906000  7.50551000  3.77336000  1
  Mo  Mo4  1  4.03959000  2.31790000  2.01851000  1
  Mo  Mo5  1  -0.14675100  4.04780000  3.74672000  1
  Mo  Mo6  1  1.95475000  5.77664000  0.29886200  1
  Mo  Mo7  1  1.95836000  4.04744000  2.02859000  1
  Mo  Mo8  1  -0.13884600  5.77046000  2.01902000  1
  Mo  Mo9  1  4.05824000  4.05540000  0.30559100  1
  Mo  Mo10  1  4.05026000  5.78069000  2.01958000  1
  Mo  Mo11  1  8.24854000  7.51009000  3.76273000  1
  Mo  Mo12  1  6.14594000  2.32271000  0.29052000  1
  Mo  Mo13  1  6.13211000  0.59617500  2.03271000  1
  Mo  Mo14  1  6.15685000  5.77457000  0.29663500  1
  Mo  Mo15  1  6.14001000  4.04774000  2.03319000  1
