# generated using pymatgen
data_Mo
_symmetry_space_group_name_H-M   'P 1'
_cell_length_a   7.66525201
_cell_length_b   7.13214153
_cell_length_c   3.56602168
_cell_angle_alpha   90.00000000
_cell_angle_beta   90.00000000
_cell_angle_gamma   90.00000000
_symmetry_Int_Tables_number   1
_chemical_formula_structural   Mo
_chemical_formula_sum   Mo16
_cell_volume   194.95320082
_cell_formula_units_Z   16
loop_
 _symmetry_equiv_pos_site_id
 _symmetry_equiv_pos_as_xyz
  1  'x, y, z'
loop_
 _atom_site_type_symbol
 _atom_site_label
 _atom_site_symmetry_multiplicity
 _atom_site_fract_x
 _atom_site_fract_y
 _atom_site_fract_z
 _atom_site_occupancy
  Mo  Mo0  1  0.22953100  7.60808000  3.81648000  1
  Mo  Mo1  1  2.12832000  2.27462000  0.23745500  1
  Mo  Mo2  1  2.14141000  0.48917200  2.03401000  1
  Mo  Mo3  1  0.21741300  2.25816000  2.02077000  1
  Mo  Mo4  1  4.06288000  7.61072000  3.81305000  1
  Mo  Mo5  1  5.97036000  2.27316000  0.23315100  1
  Mo  Mo6  1  5.98133000  0.49080900  2.03319000  1
  Mo  Mo7  1  4.06181000  2.27074000  2.01201000  1
  Mo  Mo8  1  7.87886000  4.04678000  0.25338100  1
  Mo  Mo9  1  2.12624000  5.84508000  0.24079900  1
  Mo  Mo10  1  2.12129000  4.04675000  2.02430000  1
  Mo  Mo11  1  0.20965900  5.83121000  2.02769000  1
  Mo  Mo12  1  4.03940000  4.04561000  0.24992500  1
  Mo  Mo13  1  5.95244000  5.83529000  3.79980000  1
  Mo  Mo14  1  5.96399000  4.05891000  2.02307000  1
  Mo  Mo15  1  4.04981000  5.81489000  2.01489000  1
