# generated using pymatgen
data_Mo
_symmetry_space_group_name_H-M   'P 1'
_cell_length_a   8.64051139
_cell_length_b   6.83715564
_cell_length_c   3.41981816
_cell_angle_alpha   90.00000000
_cell_angle_beta   90.00000000
_cell_angle_gamma   90.00000000
_symmetry_Int_Tables_number   1
_chemical_formula_structural   Mo
_chemical_formula_sum   Mo16
_cell_volume   202.03096023
_cell_formula_units_Z   16
loop_
 _symmetry_equiv_pos_site_id
 _symmetry_equiv_pos_as_xyz
  1  'x, y, z'
loop_
 _atom_site_type_symbol
 _atom_site_label
 _atom_site_symmetry_multiplicity
 _atom_site_fract_x
 _atom_site_fract_y
 _atom_site_fract_z
 _atom_site_occupancy
  Mo  Mo0  1  1.88734000  2.34228000  0.30930700  1
  Mo  Mo1  1  1.88781000  0.62593300  2.03378000  1
  Mo  Mo2  1  -0.27199800  2.34951000  2.00995000  1
  Mo  Mo3  1  4.04489000  7.47256000  3.74176000  1
  Mo  Mo4  1  4.05098000  2.33895000  2.02038000  1
  Mo  Mo5  1  -0.26724400  4.05133000  3.73336000  1
  Mo  Mo6  1  1.88187000  5.75233000  0.31812700  1
  Mo  Mo7  1  1.89663000  4.04865000  2.01609000  1
  Mo  Mo8  1  -0.27154200  5.75432000  2.02150000  1
  Mo  Mo9  1  4.05128000  4.05301000  0.31923600  1
  Mo  Mo10  1  4.05724000  5.76963000  2.03255000  1
  Mo  Mo11  1  8.37256000  7.47099000  3.73697000  1
  Mo  Mo12  1  6.19867000  2.34396000  0.31379000  1
  Mo  Mo13  1  6.21540000  0.62524900  2.03442000  1
  Mo  Mo14  1  6.20825000  5.76142000  0.32278700  1
  Mo  Mo15  1  6.21734000  4.03988000  2.01618000  1
