# generated using pymatgen
data_Mo
_symmetry_space_group_name_H-M   'P 1'
_cell_length_a   8.43672609
_cell_length_b   6.89952976
_cell_length_c   3.44446683
_cell_angle_alpha   90.00000000
_cell_angle_beta   90.00000000
_cell_angle_gamma   90.00000000
_symmetry_Int_Tables_number   1
_chemical_formula_structural   Mo
_chemical_formula_sum   Mo16
_cell_volume   200.50049459
_cell_formula_units_Z   16
loop_
 _symmetry_equiv_pos_site_id
 _symmetry_equiv_pos_as_xyz
  1  'x, y, z'
loop_
 _atom_site_type_symbol
 _atom_site_label
 _atom_site_symmetry_multiplicity
 _atom_site_fract_x
 _atom_site_fract_y
 _atom_site_fract_z
 _atom_site_occupancy
  Mo  Mo0  1  1.93451000  2.32089000  0.30925500  1
  Mo  Mo1  1  1.93115000  0.59192000  2.02301000  1
  Mo  Mo2  1  -0.17269400  2.33231000  2.02429000  1
  Mo  Mo3  1  4.05143000  7.50417000  3.74850000  1
  Mo  Mo4  1  4.05039000  2.32314000  2.02476000  1
  Mo  Mo5  1  -0.16801500  4.05105000  3.73225000  1
  Mo  Mo6  1  1.93236000  5.77138000  0.31250300  1
  Mo  Mo7  1  1.94443000  4.04509000  2.01246000  1
  Mo  Mo8  1  -0.16887600  5.77971000  2.02776000  1
  Mo  Mo9  1  4.05672000  4.05805000  0.29912300  1
  Mo  Mo10  1  4.05669000  5.78775000  2.03678000  1
  Mo  Mo11  1  8.26649000  7.50539000  3.73715000  1
  Mo  Mo12  1  6.15379000  2.31415000  0.30773400  1
  Mo  Mo13  1  6.16050000  0.59970100  2.02637000  1
  Mo  Mo14  1  6.16479000  5.76851000  0.31702900  1
  Mo  Mo15  1  6.16961000  4.04679000  2.01658000  1
