# generated using pymatgen
data_Mo
_symmetry_space_group_name_H-M   'P 1'
_cell_length_a   8.34065623
_cell_length_b   6.92507011
_cell_length_c   3.46023226
_cell_angle_alpha   90.00000000
_cell_angle_beta   90.00000000
_cell_angle_gamma   90.00000000
_symmetry_Int_Tables_number   1
_chemical_formula_structural   Mo
_chemical_formula_sum   Mo16
_cell_volume   199.86173188
_cell_formula_units_Z   16
loop_
 _symmetry_equiv_pos_site_id
 _symmetry_equiv_pos_as_xyz
  1  'x, y, z'
loop_
 _atom_site_type_symbol
 _atom_site_label
 _atom_site_symmetry_multiplicity
 _atom_site_fract_x
 _atom_site_fract_y
 _atom_site_fract_z
 _atom_site_occupancy
  Mo  Mo0  1  1.96401000  2.32060000  0.30014400  1
  Mo  Mo1  1  1.96969000  0.59415900  2.02706000  1
  Mo  Mo2  1  -0.11323400  2.31563000  2.03067000  1
  Mo  Mo3  1  4.06340000  7.50763000  3.74806000  1
  Mo  Mo4  1  4.05777000  2.32372000  2.01941000  1
  Mo  Mo5  1  -0.12879600  4.04584000  3.75565000  1
  Mo  Mo6  1  1.96036000  5.77882000  0.30552300  1
  Mo  Mo7  1  1.94378000  4.05538000  2.00816000  1
  Mo  Mo8  1  -0.12225200  5.78274000  2.03712000  1
  Mo  Mo9  1  4.05069000  4.04148000  0.28508500  1
  Mo  Mo10  1  4.04428000  5.77530000  2.03660000  1
  Mo  Mo11  1  8.22029000  7.50838000  3.75839000  1
  Mo  Mo12  1  6.14922000  2.32677000  0.29362200  1
  Mo  Mo13  1  6.14290000  0.58794600  2.02290000  1
  Mo  Mo14  1  6.13779000  5.77975000  0.30599000  1
  Mo  Mo15  1  6.11944000  4.05584000  2.00536000  1
