# generated using pymatgen
data_Mo
_symmetry_space_group_name_H-M   'P 1'
_cell_length_a   7.56044796
_cell_length_b   7.16843060
_cell_length_c   3.58442020
_cell_angle_alpha   90.00000000
_cell_angle_beta   90.00000000
_cell_angle_gamma   90.00000000
_symmetry_Int_Tables_number   1
_chemical_formula_structural   Mo
_chemical_formula_sum   Mo16
_cell_volume   194.26319623
_cell_formula_units_Z   16
loop_
 _symmetry_equiv_pos_site_id
 _symmetry_equiv_pos_as_xyz
  1  'x, y, z'
loop_
 _atom_site_type_symbol
 _atom_site_label
 _atom_site_symmetry_multiplicity
 _atom_site_fract_x
 _atom_site_fract_y
 _atom_site_fract_z
 _atom_site_occupancy
  Mo  Mo0  1  0.26130800  7.63415000  3.82947000  1
  Mo  Mo1  1  2.15849000  2.25654000  0.21548500  1
  Mo  Mo2  1  2.17361000  0.46990500  2.03352000  1
  Mo  Mo3  1  0.27574900  2.25449000  2.00957000  1
  Mo  Mo4  1  4.04164000  7.63107000  3.83083000  1
  Mo  Mo5  1  5.92709000  2.25979000  0.22307500  1
  Mo  Mo6  1  5.94066000  0.46794100  2.03491000  1
  Mo  Mo7  1  4.04232000  2.24680000  2.02381000  1
  Mo  Mo8  1  7.83453000  4.04806000  0.22569700  1
  Mo  Mo9  1  2.15630000  5.84391000  0.23255300  1
  Mo  Mo10  1  2.17009000  4.05624000  2.03050000  1
  Mo  Mo11  1  0.27665000  5.83500000  2.02614000  1
  Mo  Mo12  1  4.05810000  4.04996000  0.22710700  1
  Mo  Mo13  1  5.94006000  5.85101000  3.81551000  1
  Mo  Mo14  1  5.93869000  4.04797000  2.03063000  1
  Mo  Mo15  1  4.04427000  5.84716000  2.02678000  1
