# generated using pymatgen
data_Mo
_symmetry_space_group_name_H-M   'P 1'
_cell_length_a   8.30863231
_cell_length_b   6.93438751
_cell_length_c   3.46513486
_cell_angle_alpha   90.00000000
_cell_angle_beta   90.00000000
_cell_angle_gamma   90.00000000
_symmetry_Int_Tables_number   1
_chemical_formula_structural   Mo
_chemical_formula_sum   Mo16
_cell_volume   199.64470146
_cell_formula_units_Z   16
loop_
 _symmetry_equiv_pos_site_id
 _symmetry_equiv_pos_as_xyz
  1  'x, y, z'
loop_
 _atom_site_type_symbol
 _atom_site_label
 _atom_site_symmetry_multiplicity
 _atom_site_fract_x
 _atom_site_fract_y
 _atom_site_fract_z
 _atom_site_occupancy
  Mo  Mo0  1  1.97231000  2.32416000  0.27876800  1
  Mo  Mo1  1  1.97802000  0.58697800  2.03229000  1
  Mo  Mo2  1  -0.10246400  2.30514000  2.01844000  1
  Mo  Mo3  1  4.05690000  7.51559000  3.77634000  1
  Mo  Mo4  1  4.05489000  2.31248000  2.01102000  1
  Mo  Mo5  1  -0.10870800  4.04672000  3.75849000  1
  Mo  Mo6  1  1.97190000  5.79492000  0.28770300  1
  Mo  Mo7  1  1.96759000  4.05144000  2.03095000  1
  Mo  Mo8  1  -0.10252300  5.78018000  2.02297000  1
  Mo  Mo9  1  4.04107000  4.04288000  0.29305200  1
  Mo  Mo10  1  4.04899000  5.77026000  2.02191000  1
  Mo  Mo11  1  8.21029000  7.50876000  3.77704000  1
  Mo  Mo12  1  6.13071000  2.32641000  0.27559600  1
  Mo  Mo13  1  6.12444000  0.58597900  2.03099000  1
  Mo  Mo14  1  6.12015000  5.78925000  0.28893500  1
  Mo  Mo15  1  6.12781000  4.05885000  2.03038000  1
