# generated using pymatgen
data_Mo
_symmetry_space_group_name_H-M   'P 1'
_cell_length_a   7.71037602
_cell_length_b   7.11656308
_cell_length_c   3.55868125
_cell_angle_alpha   90.00000000
_cell_angle_beta   90.00000000
_cell_angle_gamma   90.00000000
_symmetry_Int_Tables_number   1
_chemical_formula_structural   Mo
_chemical_formula_sum   Mo16
_cell_volume   195.26974175
_cell_formula_units_Z   16
loop_
 _symmetry_equiv_pos_site_id
 _symmetry_equiv_pos_as_xyz
  1  'x, y, z'
loop_
 _atom_site_type_symbol
 _atom_site_label
 _atom_site_symmetry_multiplicity
 _atom_site_fract_x
 _atom_site_fract_y
 _atom_site_fract_z
 _atom_site_occupancy
  Mo  Mo0  1  0.18776500  7.61165000  3.81003000  1
  Mo  Mo1  1  2.12364000  2.27221000  0.23957300  1
  Mo  Mo2  1  2.12504000  0.48507800  2.03822000  1
  Mo  Mo3  1  0.19590200  2.26372000  2.01405000  1
  Mo  Mo4  1  4.05516000  7.61501000  3.81644000  1
  Mo  Mo5  1  5.99127000  2.27114000  0.23435400  1
  Mo  Mo6  1  5.97600000  0.48579100  2.04113000  1
  Mo  Mo7  1  4.04668000  2.27741000  2.00733000  1
  Mo  Mo8  1  7.90174000  4.05269000  0.24392100  1
  Mo  Mo9  1  2.12987000  5.83273000  0.24576300  1
  Mo  Mo10  1  2.11625000  4.04115000  2.02081000  1
  Mo  Mo11  1  0.19524600  5.83895000  2.02024000  1
  Mo  Mo12  1  4.05073000  4.05287000  0.25027600  1
  Mo  Mo13  1  5.98282000  5.82279000  3.80782000  1
  Mo  Mo14  1  5.96967000  4.05221000  2.02485000  1
  Mo  Mo15  1  4.04185000  5.82459000  2.02652000  1
