# generated using pymatgen
data_Mo
_symmetry_space_group_name_H-M   'P 1'
_cell_length_a   8.11066885
_cell_length_b   6.99164897
_cell_length_c   3.49583793
_cell_angle_alpha   90.00000000
_cell_angle_beta   90.00000000
_cell_angle_gamma   90.00000000
_symmetry_Int_Tables_number   1
_chemical_formula_structural   Mo
_chemical_formula_sum   Mo16
_cell_volume   198.23830478
_cell_formula_units_Z   16
loop_
 _symmetry_equiv_pos_site_id
 _symmetry_equiv_pos_as_xyz
  1  'x, y, z'
loop_
 _atom_site_type_symbol
 _atom_site_label
 _atom_site_symmetry_multiplicity
 _atom_site_fract_x
 _atom_site_fract_y
 _atom_site_fract_z
 _atom_site_occupancy
  Mo  Mo0  1  0.00503004  7.55863000  3.77755000  1
  Mo  Mo1  1  2.02201000  2.29549000  0.28835500  1
  Mo  Mo2  1  2.01644000  0.54770600  2.01769000  1
  Mo  Mo3  1  -0.00581769  2.30879000  2.03301000  1
  Mo  Mo4  1  4.04996000  7.54718000  3.76553000  1
  Mo  Mo5  1  6.07021000  2.29780000  0.28286500  1
  Mo  Mo6  1  6.08688000  0.54453100  2.01123000  1
  Mo  Mo7  1  4.05147000  2.30431000  2.02324000  1
  Mo  Mo8  1  8.10118000  4.05123000  0.27801800  1
  Mo  Mo9  1  2.01581000  5.78650000  0.28236400  1
  Mo  Mo10  1  2.03463000  4.04837000  2.03006000  1
  Mo  Mo11  1  -0.00924466  5.80496000  2.02193000  1
  Mo  Mo12  1  4.04226000  4.05751000  0.26560200  1
  Mo  Mo13  1  6.07048000  5.79661000  3.77952000  1
  Mo  Mo14  1  6.08130000  4.03980000  2.02473000  1
  Mo  Mo15  1  4.05673000  5.81060000  2.02247000  1
