# generated using pymatgen
data_Mo
_symmetry_space_group_name_H-M   'P 1'
_cell_length_a   8.73221582
_cell_length_b   6.84805149
_cell_length_c   3.39199471
_cell_angle_alpha   90.00000000
_cell_angle_beta   90.00000000
_cell_angle_gamma   90.00000000
_symmetry_Int_Tables_number   1
_chemical_formula_structural   Mo
_chemical_formula_sum   Mo16
_cell_volume   202.83675073
_cell_formula_units_Z   16
loop_
 _symmetry_equiv_pos_site_id
 _symmetry_equiv_pos_as_xyz
  1  'x, y, z'
loop_
 _atom_site_type_symbol
 _atom_site_label
 _atom_site_symmetry_multiplicity
 _atom_site_fract_x
 _atom_site_fract_y
 _atom_site_fract_z
 _atom_site_occupancy
  Mo  Mo0  1  1.85623000  2.34732000  0.31168900  1
  Mo  Mo1  1  1.86244000  0.63157600  2.03132000  1
  Mo  Mo2  1  -0.31652600  2.32212000  2.01689000  1
  Mo  Mo3  1  4.04482000  7.47134000  3.74178000  1
  Mo  Mo4  1  4.04306000  2.32485000  2.02007000  1
  Mo  Mo5  1  -0.30955100  4.04389000  3.71526000  1
  Mo  Mo6  1  1.86805000  5.77644000  0.32016000  1
  Mo  Mo7  1  1.87429000  4.05437000  2.02962000  1
  Mo  Mo8  1  -0.30693400  5.75669000  2.02189000  1
  Mo  Mo9  1  4.06670000  4.04671000  0.33438400  1
  Mo  Mo10  1  4.04930000  5.75311000  2.02787000  1
  Mo  Mo11  1  8.39681000  7.46823000  3.73025000  1
  Mo  Mo12  1  6.23099000  2.34142000  0.31349900  1
  Mo  Mo13  1  6.22467000  0.63398400  2.03517000  1
  Mo  Mo14  1  6.24085000  5.76768000  0.32445600  1
  Mo  Mo15  1  6.24257000  4.06028000  2.03372000  1
