# generated using pymatgen
data_Mo
_symmetry_space_group_name_H-M   'P 1'
_cell_length_a   8.62741131
_cell_length_b   6.85221916
_cell_length_c   3.41575670
_cell_angle_alpha   90.00000000
_cell_angle_beta   90.00000000
_cell_angle_gamma   90.00000000
_symmetry_Int_Tables_number   1
_chemical_formula_structural   Mo
_chemical_formula_sum   Mo16
_cell_volume   201.92899211
_cell_formula_units_Z   16
loop_
 _symmetry_equiv_pos_site_id
 _symmetry_equiv_pos_as_xyz
  1  'x, y, z'
loop_
 _atom_site_type_symbol
 _atom_site_label
 _atom_site_symmetry_multiplicity
 _atom_site_fract_x
 _atom_site_fract_y
 _atom_site_fract_z
 _atom_site_occupancy
  Mo  Mo0  1  1.88885000  2.34127000  0.31628400  1
  Mo  Mo1  1  1.89056000  0.62873900  2.01967000  1
  Mo  Mo2  1  -0.26960900  2.32434000  2.03537000  1
  Mo  Mo3  1  4.03827000  7.47106000  3.73218000  1
  Mo  Mo4  1  4.04632000  2.33573000  2.02613000  1
  Mo  Mo5  1  -0.24997500  4.04470000  3.73894000  1
  Mo  Mo6  1  1.90493000  5.77498000  0.30756100  1
  Mo  Mo7  1  1.90153000  4.05126000  2.03565000  1
  Mo  Mo8  1  -0.26080900  5.76551000  2.02485000  1
  Mo  Mo9  1  4.05486000  4.04409000  0.32084100  1
  Mo  Mo10  1  4.04932000  5.75015000  2.01473000  1
  Mo  Mo11  1  8.35250000  7.46815000  3.73425000  1
  Mo  Mo12  1  6.20664000  2.33924000  0.31465900  1
  Mo  Mo13  1  6.19921000  0.63146700  2.02041000  1
  Mo  Mo14  1  6.20314000  5.76729000  0.30551800  1
  Mo  Mo15  1  6.21683000  4.06202000  2.03719000  1
