# generated using pymatgen
data_Mo
_symmetry_space_group_name_H-M   'P 1'
_cell_length_a   7.40760851
_cell_length_b   7.22655073
_cell_length_c   3.61232638
_cell_angle_alpha   90.00000000
_cell_angle_beta   90.00000000
_cell_angle_gamma   90.00000000
_symmetry_Int_Tables_number   1
_chemical_formula_structural   Mo
_chemical_formula_sum   Mo16
_cell_volume   193.37310049
_cell_formula_units_Z   16
loop_
 _symmetry_equiv_pos_site_id
 _symmetry_equiv_pos_as_xyz
  1  'x, y, z'
loop_
 _atom_site_type_symbol
 _atom_site_label
 _atom_site_symmetry_multiplicity
 _atom_site_fract_x
 _atom_site_fract_y
 _atom_site_fract_z
 _atom_site_occupancy
  Mo  Mo0  1  0.33600700  7.66011000  3.83122000  1
  Mo  Mo1  1  2.19455000  2.24647000  0.21882200  1
  Mo  Mo2  1  2.18537000  0.44668300  2.01992000  1
  Mo  Mo3  1  0.35166900  2.24434000  2.03255000  1
  Mo  Mo4  1  4.04664000  7.65061000  3.83059000  1
  Mo  Mo5  1  5.90334000  2.24755000  0.21756200  1
  Mo  Mo6  1  5.90598000  0.44507300  2.01834000  1
  Mo  Mo7  1  4.04690000  2.23998000  2.03119000  1
  Mo  Mo8  1  7.75281000  4.03920000  0.20494000  1
  Mo  Mo9  1  2.19524000  5.85506000  0.22233500  1
  Mo  Mo10  1  2.19956000  4.06175000  2.01981000  1
  Mo  Mo11  1  0.34882600  5.84457000  2.03076000  1
  Mo  Mo12  1  4.06500000  4.04800000  0.20426100  1
  Mo  Mo13  1  5.91360000  5.86505000  3.84260000  1
  Mo  Mo14  1  5.89220000  4.05319000  2.01957000  1
  Mo  Mo15  1  4.05472000  5.85237000  2.04319000  1
