# generated using pymatgen
data_Mo
_symmetry_space_group_name_H-M   'P 1'
_cell_length_a   8.22711800
_cell_length_b   6.95862633
_cell_length_c   3.47759748
_cell_angle_alpha   90.00000000
_cell_angle_beta   90.00000000
_cell_angle_gamma   90.00000000
_symmetry_Int_Tables_number   1
_chemical_formula_structural   Mo
_chemical_formula_sum   Mo16
_cell_volume   199.09050777
_cell_formula_units_Z   16
loop_
 _symmetry_equiv_pos_site_id
 _symmetry_equiv_pos_as_xyz
  1  'x, y, z'
loop_
 _atom_site_type_symbol
 _atom_site_label
 _atom_site_symmetry_multiplicity
 _atom_site_fract_x
 _atom_site_fract_y
 _atom_site_fract_z
 _atom_site_occupancy
  Mo  Mo0  1  2.00061000  2.31984000  0.29856000  1
  Mo  Mo1  1  2.00413000  0.57255700  2.01315000  1
  Mo  Mo2  1  -0.05436870  2.30533000  2.03844000  1
  Mo  Mo3  1  4.05061000  7.51849000  3.75380000  1
  Mo  Mo4  1  4.05313000  2.30264000  2.03053000  1
  Mo  Mo5  1  -0.06794560  4.03614000  3.76448000  1
  Mo  Mo6  1  1.99213000  5.79642000  0.29689600  1
  Mo  Mo7  1  1.98847000  4.05573000  2.01607000  1
  Mo  Mo8  1  -0.06677580  5.78986000  2.03868000  1
  Mo  Mo9  1  4.04254000  4.04406000  0.28216300  1
  Mo  Mo10  1  4.04522000  5.78790000  2.02242000  1
  Mo  Mo11  1  8.16991000  7.52451000  3.75840000  1
  Mo  Mo12  1  6.10700000  2.31293000  0.29560300  1
  Mo  Mo13  1  6.12017000  0.57966500  2.01149000  1
  Mo  Mo14  1  6.10151000  5.79253000  0.28853300  1
  Mo  Mo15  1  6.08654000  4.06140000  2.01317000  1
