# generated using pymatgen
data_Mo
_symmetry_space_group_name_H-M   'P 1'
_cell_length_a   7.49203423
_cell_length_b   7.19617692
_cell_length_c   3.59566331
_cell_angle_alpha   90.00000000
_cell_angle_beta   90.00000000
_cell_angle_gamma   90.00000000
_symmetry_Int_Tables_number   1
_chemical_formula_structural   Mo
_chemical_formula_sum   Mo16
_cell_volume   193.85660516
_cell_formula_units_Z   16
loop_
 _symmetry_equiv_pos_site_id
 _symmetry_equiv_pos_as_xyz
  1  'x, y, z'
loop_
 _atom_site_type_symbol
 _atom_site_label
 _atom_site_symmetry_multiplicity
 _atom_site_fract_x
 _atom_site_fract_y
 _atom_site_fract_z
 _atom_site_occupancy
  Mo  Mo0  1  0.28758700  7.64016000  3.82283000  1
  Mo  Mo1  1  2.17416000  2.25569000  0.23011600  1
  Mo  Mo2  1  2.16583000  0.45766400  2.01428000  1
  Mo  Mo3  1  0.29389800  2.25299000  2.02631000  1
  Mo  Mo4  1  4.03766000  7.64506000  3.82948000  1
  Mo  Mo5  1  5.92728000  2.25867000  0.23028000  1
  Mo  Mo6  1  5.91379000  0.45483500  2.01700000  1
  Mo  Mo7  1  4.04797000  2.24943000  2.03072000  1
  Mo  Mo8  1  7.80537000  4.04639000  0.21071800  1
  Mo  Mo9  1  2.18461000  5.84567000  0.23671300  1
  Mo  Mo10  1  2.17232000  4.05813000  2.00869000  1
  Mo  Mo11  1  0.30390900  5.84226000  2.02866000  1
  Mo  Mo12  1  4.06435000  4.04118000  0.21731700  1
  Mo  Mo13  1  5.94032000  5.84952000  3.84168000  1
  Mo  Mo14  1  5.93333000  4.05195000  2.01269000  1
  Mo  Mo15  1  4.05558000  5.85040000  2.04686000  1
