# generated using pymatgen
data_Mo
_symmetry_space_group_name_H-M   'P 1'
_cell_length_a   8.21838429
_cell_length_b   6.95935565
_cell_length_c   3.47979689
_cell_angle_alpha   90.00000000
_cell_angle_beta   90.00000000
_cell_angle_gamma   90.00000000
_symmetry_Int_Tables_number   1
_chemical_formula_structural   Mo
_chemical_formula_sum   Mo16
_cell_volume   199.02579683
_cell_formula_units_Z   16
loop_
 _symmetry_equiv_pos_site_id
 _symmetry_equiv_pos_as_xyz
  1  'x, y, z'
loop_
 _atom_site_type_symbol
 _atom_site_label
 _atom_site_symmetry_multiplicity
 _atom_site_fract_x
 _atom_site_fract_y
 _atom_site_fract_z
 _atom_site_occupancy
  Mo  Mo0  1  1.98965000  2.30080000  0.27362800  1
  Mo  Mo1  1  1.98368000  0.56811500  2.03730000  1
  Mo  Mo2  1  -0.06684970  2.31759000  2.01493000  1
  Mo  Mo3  1  4.04785000  7.53228000  3.77112000  1
  Mo  Mo4  1  4.05139000  2.30928000  2.01685000  1
  Mo  Mo5  1  -0.06047440  4.05491000  3.76060000  1
  Mo  Mo6  1  1.98736000  5.78261000  0.28664900  1
  Mo  Mo7  1  2.00545000  4.05000000  2.03306000  1
  Mo  Mo8  1  -0.06416110  5.78880000  2.02627000  1
  Mo  Mo9  1  4.05038000  4.05825000  0.27370700  1
  Mo  Mo10  1  4.06034000  5.79845000  2.02428000  1
  Mo  Mo11  1  8.16215000  7.53874000  3.77809000  1
  Mo  Mo12  1  6.09850000  2.30228000  0.27536000  1
  Mo  Mo13  1  6.10994000  0.56569000  2.03350000  1
  Mo  Mo14  1  6.10551000  5.79200000  0.28584700  1
  Mo  Mo15  1  6.12089000  4.04019000  2.02903000  1
