# generated using pymatgen
data_Mo
_symmetry_space_group_name_H-M   'P 1'
_cell_length_a   8.18053853
_cell_length_b   6.97195303
_cell_length_c   3.48486686
_cell_angle_alpha   90.00000000
_cell_angle_beta   90.00000000
_cell_angle_gamma   90.00000000
_symmetry_Int_Tables_number   1
_chemical_formula_structural   Mo
_chemical_formula_sum   Mo16
_cell_volume   198.75704779
_cell_formula_units_Z   16
loop_
 _symmetry_equiv_pos_site_id
 _symmetry_equiv_pos_as_xyz
  1  'x, y, z'
loop_
 _atom_site_type_symbol
 _atom_site_label
 _atom_site_symmetry_multiplicity
 _atom_site_fract_x
 _atom_site_fract_y
 _atom_site_fract_z
 _atom_site_occupancy
  Mo  Mo0  1  -0.04383290  7.53475000  3.76660000  1
  Mo  Mo1  1  2.00775000  2.31173000  0.28447200  1
  Mo  Mo2  1  1.99332000  0.56913100  2.01990000  1
  Mo  Mo3  1  -0.03449960  2.30924000  2.03631000  1
  Mo  Mo4  1  4.04585000  7.52779000  3.76367000  1
  Mo  Mo5  1  6.09386000  2.30732000  0.28193200  1
  Mo  Mo6  1  6.08418000  0.57152800  2.01726000  1
  Mo  Mo7  1  4.03832000  2.30608000  2.02970000  1
  Mo  Mo8  1  8.14499000  4.04388000  0.27060500  1
  Mo  Mo9  1  2.01371000  5.79089000  0.29026200  1
  Mo  Mo10  1  2.01678000  4.05549000  2.01807000  1
  Mo  Mo11  1  -0.03213010  5.78669000  2.03894000  1
  Mo  Mo12  1  4.06027000  4.05141000  0.26808900  1
  Mo  Mo13  1  6.09970000  5.79351000  3.77598000  1
  Mo  Mo14  1  6.08224000  4.05360000  2.01580000  1
  Mo  Mo15  1  4.04896000  5.78695000  2.03753000  1
