# generated using pymatgen
data_Mo
_symmetry_space_group_name_H-M   'P 1'
_cell_length_a   8.31445510
_cell_length_b   6.92925507
_cell_length_c   3.46590257
_cell_angle_alpha   90.00000000
_cell_angle_beta   90.00000000
_cell_angle_gamma   90.00000000
_symmetry_Int_Tables_number   1
_chemical_formula_structural   Mo
_chemical_formula_sum   Mo16
_cell_volume   199.68097575
_cell_formula_units_Z   16
loop_
 _symmetry_equiv_pos_site_id
 _symmetry_equiv_pos_as_xyz
  1  'x, y, z'
loop_
 _atom_site_type_symbol
 _atom_site_label
 _atom_site_symmetry_multiplicity
 _atom_site_fract_x
 _atom_site_fract_y
 _atom_site_fract_z
 _atom_site_occupancy
  Mo  Mo0  1  1.96495000  2.32246000  0.28713200  1
  Mo  Mo1  1  1.96502000  0.58648100  2.02774000  1
  Mo  Mo2  1  -0.11004800  2.31103000  2.02591000  1
  Mo  Mo3  1  4.04626000  7.51667000  3.76536000  1
  Mo  Mo4  1  4.04539000  2.32376000  2.02274000  1
  Mo  Mo5  1  -0.10586800  4.04812000  3.74815000  1
  Mo  Mo6  1  1.98057000  5.78097000  0.29157300  1
  Mo  Mo7  1  1.96789000  4.05034000  2.01884000  1
  Mo  Mo8  1  -0.10609000  5.78593000  2.02819000  1
  Mo  Mo9  1  4.06246000  4.04674000  0.29064100  1
  Mo  Mo10  1  4.04765000  5.77367000  2.03630000  1
  Mo  Mo11  1  8.18867000  7.51187000  3.75697000  1
  Mo  Mo12  1  6.14249000  2.32058000  0.28340000  1
  Mo  Mo13  1  6.12665000  0.58817400  2.03153000  1
  Mo  Mo14  1  6.14105000  5.77391000  0.29550500  1
  Mo  Mo15  1  6.12850000  4.05930000  2.02413000  1
