# generated using pymatgen
data_Mo
_symmetry_space_group_name_H-M   'P 1'
_cell_length_a   7.86175954
_cell_length_b   7.06771511
_cell_length_c   3.53390241
_cell_angle_alpha   90.00000000
_cell_angle_beta   90.00000000
_cell_angle_gamma   90.00000000
_symmetry_Int_Tables_number   1
_chemical_formula_structural   Mo
_chemical_formula_sum   Mo16
_cell_volume   196.36014454
_cell_formula_units_Z   16
loop_
 _symmetry_equiv_pos_site_id
 _symmetry_equiv_pos_as_xyz
  1  'x, y, z'
loop_
 _atom_site_type_symbol
 _atom_site_label
 _atom_site_symmetry_multiplicity
 _atom_site_fract_x
 _atom_site_fract_y
 _atom_site_fract_z
 _atom_site_occupancy
  Mo  Mo0  1  0.12346500  7.58629000  3.78026000  1
  Mo  Mo1  1  2.08284000  2.28658000  0.26446300  1
  Mo  Mo2  1  2.09404000  0.50694200  2.02246000  1
  Mo  Mo3  1  0.12634300  2.29373000  2.02160000  1
  Mo  Mo4  1  4.05035000  7.58723000  3.78843000  1
  Mo  Mo5  1  6.00706000  2.27709000  0.26820700  1
  Mo  Mo6  1  6.02510000  0.51680800  2.02686000  1
  Mo  Mo7  1  4.05298000  2.28338000  2.02741000  1
  Mo  Mo8  1  7.97892000  4.05015000  0.25956100  1
  Mo  Mo9  1  2.07530000  5.81594000  0.26174600  1
  Mo  Mo10  1  2.08343000  4.04412000  2.01935000  1
  Mo  Mo11  1  0.11918600  5.81428000  2.02395000  1
  Mo  Mo12  1  4.05053000  4.05428000  0.26792500  1
  Mo  Mo13  1  6.00845000  5.81314000  3.79205000  1
  Mo  Mo14  1  6.01021000  4.04695000  2.02271000  1
  Mo  Mo15  1  4.05002000  5.82309000  2.01910000  1
