# generated using pymatgen
data_Mo
_symmetry_space_group_name_H-M   'P 1'
_cell_length_a   8.04371104
_cell_length_b   7.01345015
_cell_length_c   3.50522399
_cell_angle_alpha   90.00000000
_cell_angle_beta   90.00000000
_cell_angle_gamma   90.00000000
_symmetry_Int_Tables_number   1
_chemical_formula_structural   Mo
_chemical_formula_sum   Mo16
_cell_volume   197.74428920
_cell_formula_units_Z   16
loop_
 _symmetry_equiv_pos_site_id
 _symmetry_equiv_pos_as_xyz
  1  'x, y, z'
loop_
 _atom_site_type_symbol
 _atom_site_label
 _atom_site_symmetry_multiplicity
 _atom_site_fract_x
 _atom_site_fract_y
 _atom_site_fract_z
 _atom_site_occupancy
  Mo  Mo0  1  0.03414540  7.55619000  3.78753000  1
  Mo  Mo1  1  2.04400000  2.29926000  0.26296000  1
  Mo  Mo2  1  2.04304000  0.54882000  2.02886000  1
  Mo  Mo3  1  0.03094680  2.28795000  2.02075000  1
  Mo  Mo4  1  4.06817000  7.55401000  3.78101000  1
  Mo  Mo5  1  6.07785000  2.30613000  0.26562600  1
  Mo  Mo6  1  6.06710000  0.54263800  2.02707000  1
  Mo  Mo7  1  4.04998000  2.29620000  2.02563000  1
  Mo  Mo8  1  8.05447000  4.04942000  0.28215600  1
  Mo  Mo9  1  2.03604000  5.80733000  0.26212400  1
  Mo  Mo10  1  2.03005000  4.05298000  2.04286000  1
  Mo  Mo11  1  0.02273550  5.79689000  2.01962000  1
  Mo  Mo12  1  4.04092000  4.04856000  0.27553200  1
  Mo  Mo13  1  6.06352000  5.80939000  3.76168000  1
  Mo  Mo14  1  6.05254000  4.05269000  2.03969000  1
  Mo  Mo15  1  4.04077000  5.79153000  2.01169000  1
