# generated using pymatgen
data_Mo
_symmetry_space_group_name_H-M   'P 1'
_cell_length_a   8.03352187
_cell_length_b   7.01597613
_cell_length_c   3.50701618
_cell_angle_alpha   90.00000000
_cell_angle_beta   90.00000000
_cell_angle_gamma   90.00000000
_symmetry_Int_Tables_number   1
_chemical_formula_structural   Mo
_chemical_formula_sum   Mo16
_cell_volume   197.66594491
_cell_formula_units_Z   16
loop_
 _symmetry_equiv_pos_site_id
 _symmetry_equiv_pos_as_xyz
  1  'x, y, z'
loop_
 _atom_site_type_symbol
 _atom_site_label
 _atom_site_symmetry_multiplicity
 _atom_site_fract_x
 _atom_site_fract_y
 _atom_site_fract_z
 _atom_site_occupancy
  Mo  Mo0  1  0.03304300  7.56284000  3.76548000  1
  Mo  Mo1  1  2.04507000  2.28928000  0.29081700  1
  Mo  Mo2  1  2.03766000  0.53318800  2.01814000  1
  Mo  Mo3  1  0.03178440  2.31073000  2.03995000  1
  Mo  Mo4  1  4.03867000  7.55919000  3.76142000  1
  Mo  Mo5  1  6.04971000  2.28083000  0.28357200  1
  Mo  Mo6  1  6.06122000  0.54266800  2.01539000  1
  Mo  Mo7  1  4.05508000  2.29486000  2.02510000  1
  Mo  Mo8  1  8.07441000  4.05259000  0.27322900  1
  Mo  Mo9  1  2.04058000  5.80049000  0.27948900  1
  Mo  Mo10  1  2.03807000  4.04372000  2.01686000  1
  Mo  Mo11  1  0.03143650  5.80905000  2.03014000  1
  Mo  Mo12  1  4.05308000  4.05724000  0.26878000  1
  Mo  Mo13  1  6.06208000  5.79988000  3.78550000  1
  Mo  Mo14  1  6.05648000  4.04363000  2.01478000  1
  Mo  Mo15  1  4.05811000  5.81982000  2.02433000  1
