# generated using pymatgen
data_Mo
_symmetry_space_group_name_H-M   'P 1'
_cell_length_a   8.28388663
_cell_length_b   6.94281727
_cell_length_c   3.46843410
_cell_angle_alpha   90.00000000
_cell_angle_beta   90.00000000
_cell_angle_gamma   90.00000000
_symmetry_Int_Tables_number   1
_chemical_formula_structural   Mo
_chemical_formula_sum   Mo16
_cell_volume   199.48182316
_cell_formula_units_Z   16
loop_
 _symmetry_equiv_pos_site_id
 _symmetry_equiv_pos_as_xyz
  1  'x, y, z'
loop_
 _atom_site_type_symbol
 _atom_site_label
 _atom_site_symmetry_multiplicity
 _atom_site_fract_x
 _atom_site_fract_y
 _atom_site_fract_z
 _atom_site_occupancy
  Mo  Mo0  1  1.97646000  2.32392000  0.27774200  1
  Mo  Mo1  1  1.96544000  0.58158700  2.02913000  1
  Mo  Mo2  1  -0.09310240  2.30817000  2.01100000  1
  Mo  Mo3  1  4.04649000  7.51965000  3.78035000  1
  Mo  Mo4  1  4.04347000  2.30672000  2.01706000  1
  Mo  Mo5  1  -0.08762950  4.04591000  3.76058000  1
  Mo  Mo6  1  1.98401000  5.79011000  0.28350000  1
  Mo  Mo7  1  1.98921000  4.05686000  2.02665000  1
  Mo  Mo8  1  -0.08129820  5.77650000  2.01337000  1
  Mo  Mo9  1  4.05706000  4.04349000  0.29846500  1
  Mo  Mo10  1  4.05498000  5.78048000  2.02794000  1
  Mo  Mo11  1  8.18620000  7.51571000  3.77429000  1
  Mo  Mo12  1  6.11842000  2.32661000  0.28041300  1
  Mo  Mo13  1  6.09905000  0.57860900  2.03065000  1
  Mo  Mo14  1  6.12655000  5.79392000  0.29194400  1
  Mo  Mo15  1  6.13079000  4.05176000  2.02847000  1
