# generated using pymatgen
data_Mo
_symmetry_space_group_name_H-M   'P 1'
_cell_length_a   7.76277781
_cell_length_b   7.09992808
_cell_length_c   3.54973507
_cell_angle_alpha   90.00000000
_cell_angle_beta   90.00000000
_cell_angle_gamma   90.00000000
_symmetry_Int_Tables_number   1
_chemical_formula_structural   Mo
_chemical_formula_sum   Mo16
_cell_volume   195.64423095
_cell_formula_units_Z   16
loop_
 _symmetry_equiv_pos_site_id
 _symmetry_equiv_pos_as_xyz
  1  'x, y, z'
loop_
 _atom_site_type_symbol
 _atom_site_label
 _atom_site_symmetry_multiplicity
 _atom_site_fract_x
 _atom_site_fract_y
 _atom_site_fract_z
 _atom_site_occupancy
  Mo  Mo0  1  0.15821200  7.59737000  3.80587000  1
  Mo  Mo1  1  2.11129000  2.26885000  0.25134400  1
  Mo  Mo2  1  2.10437000  0.50409400  2.02034000  1
  Mo  Mo3  1  0.16179400  2.26807000  2.02234000  1
  Mo  Mo4  1  4.03906000  7.60257000  3.80473000  1
  Mo  Mo5  1  5.99378000  2.27820000  0.25115900  1
  Mo  Mo6  1  5.97325000  0.49386700  2.01943000  1
  Mo  Mo7  1  4.04482000  2.27803000  2.02391000  1
  Mo  Mo8  1  7.94180000  4.05670000  0.25953700  1
  Mo  Mo9  1  2.12584000  5.83071000  0.23773300  1
  Mo  Mo10  1  2.11237000  4.04841000  2.04096000  1
  Mo  Mo11  1  0.17384100  5.82699000  2.00346000  1
  Mo  Mo12  1  4.05291000  4.04810000  0.25873500  1
  Mo  Mo13  1  5.99675000  5.83297000  3.79417000  1
  Mo  Mo14  1  5.99734000  4.04484000  2.04105000  1
  Mo  Mo15  1  4.04978000  5.82022000  2.01548000  1
