# generated using pymatgen
data_Mo
_symmetry_space_group_name_H-M   'P 1'
_cell_length_a   8.37995745
_cell_length_b   6.91341829
_cell_length_c   3.45422840
_cell_angle_alpha   90.00000000
_cell_angle_beta   90.00000000
_cell_angle_gamma   90.00000000
_symmetry_Int_Tables_number   1
_chemical_formula_structural   Mo
_chemical_formula_sum   Mo16
_cell_volume   200.11779029
_cell_formula_units_Z   16
loop_
 _symmetry_equiv_pos_site_id
 _symmetry_equiv_pos_as_xyz
  1  'x, y, z'
loop_
 _atom_site_type_symbol
 _atom_site_label
 _atom_site_symmetry_multiplicity
 _atom_site_fract_x
 _atom_site_fract_y
 _atom_site_fract_z
 _atom_site_occupancy
  Mo  Mo0  1  1.95118000  2.31390000  0.29575100  1
  Mo  Mo1  1  1.96575000  0.58827700  2.03001000  1
  Mo  Mo2  1  -0.13588200  2.31755000  2.01798000  1
  Mo  Mo3  1  4.05491000  7.51382000  3.75652000  1
  Mo  Mo4  1  4.05614000  2.33011000  2.01370000  1
  Mo  Mo5  1  -0.13684300  4.05850000  3.75998000  1
  Mo  Mo6  1  1.95415000  5.77855000  0.29898800  1
  Mo  Mo7  1  1.94693000  4.03970000  2.03392000  1
  Mo  Mo8  1  -0.14078100  5.79318000  2.02081000  1
  Mo  Mo9  1  4.04618000  4.05323000  0.29893200  1
  Mo  Mo10  1  4.04675000  5.77951000  2.00856000  1
  Mo  Mo11  1  8.24657000  7.51115000  3.76352000  1
  Mo  Mo12  1  6.14507000  2.31666000  0.29398000  1
  Mo  Mo13  1  6.15176000  0.58517600  2.02903000  1
  Mo  Mo14  1  6.13121000  5.77395000  0.29208500  1
  Mo  Mo15  1  6.13694000  4.04673000  2.03201000  1
