# generated using pymatgen
data_Mo
_symmetry_space_group_name_H-M   'P 1'
_cell_length_a   7.37849647
_cell_length_b   7.23737299
_cell_length_c   3.61843610
_cell_angle_alpha   90.00000000
_cell_angle_beta   90.00000000
_cell_angle_gamma   90.00000000
_symmetry_Int_Tables_number   1
_chemical_formula_structural   Mo
_chemical_formula_sum   Mo16
_cell_volume   193.22785668
_cell_formula_units_Z   16
loop_
 _symmetry_equiv_pos_site_id
 _symmetry_equiv_pos_as_xyz
  1  'x, y, z'
loop_
 _atom_site_type_symbol
 _atom_site_label
 _atom_site_symmetry_multiplicity
 _atom_site_fract_x
 _atom_site_fract_y
 _atom_site_fract_z
 _atom_site_occupancy
  Mo  Mo0  1  0.34089300  7.66135000  3.83841000  1
  Mo  Mo1  1  2.19673000  2.24043000  0.21360300  1
  Mo  Mo2  1  2.20309000  0.43731100  2.02440000  1
  Mo  Mo3  1  0.35277800  2.23877000  2.01699000  1
  Mo  Mo4  1  4.04124000  7.66926000  3.84565000  1
  Mo  Mo5  1  5.89632000  2.24776000  0.21353000  1
  Mo  Mo6  1  5.88423000  0.43011500  2.02726000  1
  Mo  Mo7  1  4.04905000  2.24552000  2.02123000  1
  Mo  Mo8  1  7.74623000  4.04994000  0.20470700  1
  Mo  Mo9  1  2.21047000  5.86107000  0.22101900  1
  Mo  Mo10  1  2.20422000  4.05289000  2.01558000  1
  Mo  Mo11  1  0.36694800  5.85741000  2.02099000  1
  Mo  Mo12  1  4.05916000  4.04203000  0.21187500  1
  Mo  Mo13  1  5.90399000  5.85887000  3.84824000  1
  Mo  Mo14  1  5.91324000  4.05251000  2.01963000  1
  Mo  Mo15  1  4.05290000  5.85477000  2.03846000  1
