# generated using pymatgen
data_Mo
_symmetry_space_group_name_H-M   'P 1'
_cell_length_a   8.37122373
_cell_length_b   6.91243958
_cell_length_c   3.45732403
_cell_angle_alpha   90.00000000
_cell_angle_beta   90.00000000
_cell_angle_gamma   90.00000000
_symmetry_Int_Tables_number   1
_chemical_formula_structural   Mo
_chemical_formula_sum   Mo16
_cell_volume   200.06005426
_cell_formula_units_Z   16
loop_
 _symmetry_equiv_pos_site_id
 _symmetry_equiv_pos_as_xyz
  1  'x, y, z'
loop_
 _atom_site_type_symbol
 _atom_site_label
 _atom_site_symmetry_multiplicity
 _atom_site_fract_x
 _atom_site_fract_y
 _atom_site_fract_z
 _atom_site_occupancy
  Mo  Mo0  1  1.97234000  2.32447000  0.29022500  1
  Mo  Mo1  1  1.96434000  0.59050300  2.03063000  1
  Mo  Mo2  1  -0.13070300  2.32707000  2.02549000  1
  Mo  Mo3  1  4.06355000  7.51080000  3.75561000  1
  Mo  Mo4  1  4.04594000  2.31836000  2.02164000  1
  Mo  Mo5  1  -0.15263200  4.05187000  3.74610000  1
  Mo  Mo6  1  1.95650000  5.77467000  0.30181900  1
  Mo  Mo7  1  1.95129000  4.04941000  2.02244000  1
  Mo  Mo8  1  -0.13526100  5.77563000  2.03752000  1
  Mo  Mo9  1  4.03863000  4.05109000  0.28509500  1
  Mo  Mo10  1  4.03867000  5.77954000  2.02957000  1
  Mo  Mo11  1  8.24329000  7.50988000  3.75868000  1
  Mo  Mo12  1  6.15332000  2.32261000  0.28993200  1
  Mo  Mo13  1  6.13647000  0.59225200  2.02844000  1
  Mo  Mo14  1  6.14803000  5.77230000  0.29933100  1
  Mo  Mo15  1  6.13500000  4.04955000  2.02016000  1
