# generated using pymatgen
data_Mo
_symmetry_space_group_name_H-M   'P 1'
_cell_length_a   7.88796066
_cell_length_b   7.05975467
_cell_length_c   3.52977157
_cell_angle_alpha   90.00000000
_cell_angle_beta   90.00000000
_cell_angle_gamma   90.00000000
_symmetry_Int_Tables_number   1
_chemical_formula_structural   Mo
_chemical_formula_sum   Mo16
_cell_volume   196.56262620
_cell_formula_units_Z   16
loop_
 _symmetry_equiv_pos_site_id
 _symmetry_equiv_pos_as_xyz
  1  'x, y, z'
loop_
 _atom_site_type_symbol
 _atom_site_label
 _atom_site_symmetry_multiplicity
 _atom_site_fract_x
 _atom_site_fract_y
 _atom_site_fract_z
 _atom_site_occupancy
  Mo  Mo0  1  0.10323900  7.57968000  3.79597000  1
  Mo  Mo1  1  2.07297000  2.28279000  0.25568800  1
  Mo  Mo2  1  2.09933000  0.52006800  2.03394000  1
  Mo  Mo3  1  0.10968800  2.28369000  2.02265000  1
  Mo  Mo4  1  4.05423000  7.58393000  3.78913000  1
  Mo  Mo5  1  6.02537000  2.28449000  0.25367700  1
  Mo  Mo6  1  6.03640000  0.51900000  2.03221000  1
  Mo  Mo7  1  4.05265000  2.29502000  2.01759000  1
  Mo  Mo8  1  7.98941000  4.05651000  0.25533800  1
  Mo  Mo9  1  2.07518000  5.81733000  0.26987500  1
  Mo  Mo10  1  2.07265000  4.04242000  2.02351000  1
  Mo  Mo11  1  0.10355600  5.81834000  2.03901000  1
  Mo  Mo12  1  4.04438000  4.05102000  0.24845300  1
  Mo  Mo13  1  6.01243000  5.80977000  3.78989000  1
  Mo  Mo14  1  6.01966000  4.05154000  2.02073000  1
  Mo  Mo15  1  4.04089000  5.80440000  2.02258000  1
