# generated using pymatgen
data_Mo
_symmetry_space_group_name_H-M   'P 1'
_cell_length_a   7.75113317
_cell_length_b   7.10403660
_cell_length_c   3.55140352
_cell_angle_alpha   90.00000000
_cell_angle_beta   90.00000000
_cell_angle_gamma   90.00000000
_symmetry_Int_Tables_number   1
_chemical_formula_structural   Mo
_chemical_formula_sum   Mo16
_cell_volume   195.55566885
_cell_formula_units_Z   16
loop_
 _symmetry_equiv_pos_site_id
 _symmetry_equiv_pos_as_xyz
  1  'x, y, z'
loop_
 _atom_site_type_symbol
 _atom_site_label
 _atom_site_symmetry_multiplicity
 _atom_site_fract_x
 _atom_site_fract_y
 _atom_site_fract_z
 _atom_site_occupancy
  Mo  Mo0  1  0.17479100  7.60032000  3.78554000  1
  Mo  Mo1  1  2.10590000  2.27392000  0.25175500  1
  Mo  Mo2  1  2.11357000  0.49621400  2.02195000  1
  Mo  Mo3  1  0.17164000  2.27649000  2.02548000  1
  Mo  Mo4  1  4.04872000  7.60411000  3.79599000  1
  Mo  Mo5  1  5.98038000  2.27017000  0.25768800  1
  Mo  Mo6  1  5.98809000  0.49995300  2.02721000  1
  Mo  Mo7  1  4.05283000  2.27948000  2.03520000  1
  Mo  Mo8  1  7.92915000  4.04854000  0.23755400  1
  Mo  Mo9  1  2.10841000  5.82423000  0.25952900  1
  Mo  Mo10  1  2.11647000  4.04638000  2.00796000  1
  Mo  Mo11  1  0.17614700  5.83194000  2.03883000  1
  Mo  Mo12  1  4.04819000  4.05016000  0.24817200  1
  Mo  Mo13  1  5.98141000  5.81566000  3.80810000  1
  Mo  Mo14  1  5.99905000  4.05444000  2.01203000  1
  Mo  Mo15  1  4.05412000  5.82800000  2.03562000  1
