# generated using pymatgen
data_Mo
_symmetry_space_group_name_H-M   'P 1'
_cell_length_a   8.36540094
_cell_length_b   6.91758484
_cell_length_c   3.45649171
_cell_angle_alpha   90.00000000
_cell_angle_beta   90.00000000
_cell_angle_gamma   90.00000000
_symmetry_Int_Tables_number   1
_chemical_formula_structural   Mo
_chemical_formula_sum   Mo16
_cell_volume   200.02154351
_cell_formula_units_Z   16
loop_
 _symmetry_equiv_pos_site_id
 _symmetry_equiv_pos_as_xyz
  1  'x, y, z'
loop_
 _atom_site_type_symbol
 _atom_site_label
 _atom_site_symmetry_multiplicity
 _atom_site_fract_x
 _atom_site_fract_y
 _atom_site_fract_z
 _atom_site_occupancy
  Mo  Mo0  1  1.95804000  2.32539000  0.30399400  1
  Mo  Mo1  1  1.95055000  0.59980100  2.02025000  1
  Mo  Mo2  1  -0.13158600  2.32356000  2.03164000  1
  Mo  Mo3  1  4.05049000  7.49634000  3.74438000  1
  Mo  Mo4  1  4.05233000  2.31660000  2.03268000  1
  Mo  Mo5  1  -0.13531700  4.03946000  3.75219000  1
  Mo  Mo6  1  1.95263000  5.77842000  0.29992500  1
  Mo  Mo7  1  1.95545000  4.06277000  2.00952000  1
  Mo  Mo8  1  -0.13425400  5.76878000  2.02914000  1
  Mo  Mo9  1  4.05556000  4.04413000  0.29495100  1
  Mo  Mo10  1  4.05479000  5.77784000  2.04159000  1
  Mo  Mo11  1  8.23018000  7.50405000  3.74496000  1
  Mo  Mo12  1  6.14278000  2.32736000  0.30339400  1
  Mo  Mo13  1  6.14594000  0.59665000  2.01849000  1
  Mo  Mo14  1  6.14943000  5.78674000  0.30708100  1
  Mo  Mo15  1  6.13759000  4.05211000  2.00933000  1
