# generated using pymatgen
data_Mo
_symmetry_space_group_name_H-M   'P 1'
_cell_length_a   7.81809099
_cell_length_b   7.08168733
_cell_length_c   3.54094672
_cell_angle_alpha   90.00000000
_cell_angle_beta   90.00000000
_cell_angle_gamma   90.00000000
_symmetry_Int_Tables_number   1
_chemical_formula_structural   Mo
_chemical_formula_sum   Mo16
_cell_volume   196.04549228
_cell_formula_units_Z   16
loop_
 _symmetry_equiv_pos_site_id
 _symmetry_equiv_pos_as_xyz
  1  'x, y, z'
loop_
 _atom_site_type_symbol
 _atom_site_label
 _atom_site_symmetry_multiplicity
 _atom_site_fract_x
 _atom_site_fract_y
 _atom_site_fract_z
 _atom_site_occupancy
  Mo  Mo0  1  0.15191600  7.58603000  3.80718000  1
  Mo  Mo1  1  2.11090000  2.28924000  0.24419800  1
  Mo  Mo2  1  2.10241000  0.50953500  2.04240000  1
  Mo  Mo3  1  0.14508700  2.27361000  2.01864000  1
  Mo  Mo4  1  4.05211000  7.58548000  3.80658000  1
  Mo  Mo5  1  6.01175000  2.28061000  0.23590900  1
  Mo  Mo6  1  6.01264000  0.51912300  2.04175000  1
  Mo  Mo7  1  4.05326000  2.26514000  2.00388000  1
  Mo  Mo8  1  7.95115000  4.04513000  0.26345200  1
  Mo  Mo9  1  2.09875000  5.83265000  0.24907500  1
  Mo  Mo10  1  2.08343000  4.05152000  2.02234000  1
  Mo  Mo11  1  0.13225000  5.81153000  2.02470000  1
  Mo  Mo12  1  4.03888000  4.04852000  0.26316200  1
  Mo  Mo13  1  6.00547000  5.82957000  3.79015000  1
  Mo  Mo14  1  5.98703000  4.05576000  2.02287000  1
  Mo  Mo15  1  4.04485000  5.81654000  2.02277000  1
