# generated using pymatgen
data_Mo
_symmetry_space_group_name_H-M   'P 1'
_cell_length_a   8.16307111
_cell_length_b   6.97526383
_cell_length_c   3.48834777
_cell_angle_alpha   90.00000000
_cell_angle_beta   90.00000000
_cell_angle_gamma   90.00000000
_symmetry_Int_Tables_number   1
_chemical_formula_structural   Mo
_chemical_formula_sum   Mo16
_cell_volume   198.62503825
_cell_formula_units_Z   16
loop_
 _symmetry_equiv_pos_site_id
 _symmetry_equiv_pos_as_xyz
  1  'x, y, z'
loop_
 _atom_site_type_symbol
 _atom_site_label
 _atom_site_symmetry_multiplicity
 _atom_site_fract_x
 _atom_site_fract_y
 _atom_site_fract_z
 _atom_site_occupancy
  Mo  Mo0  1  -0.03057000  7.54357000  3.76200000  1
  Mo  Mo1  1  2.00259000  2.30070000  0.28058600  1
  Mo  Mo2  1  2.02156000  0.55363500  2.03133000  1
  Mo  Mo3  1  -0.03289220  2.30566000  2.02217000  1
  Mo  Mo4  1  4.05104000  7.55116000  3.77089000  1
  Mo  Mo5  1  6.08884000  2.29919000  0.27845200  1
  Mo  Mo6  1  6.10285000  0.55607900  2.03463000  1
  Mo  Mo7  1  4.05894000  2.31362000  2.01968000  1
  Mo  Mo8  1  8.13580000  4.05965000  0.28310200  1
  Mo  Mo9  1  2.00440000  5.79372000  0.27316900  1
  Mo  Mo10  1  1.99894000  4.03767000  2.02892000  1
  Mo  Mo11  1  -0.03599370  5.80339000  2.01548000  1
  Mo  Mo12  1  4.04765000  4.05687000  0.29206000  1
  Mo  Mo13  1  6.08157000  5.78419000  3.76504000  1
  Mo  Mo14  1  6.09273000  4.04716000  2.03322000  1
  Mo  Mo15  1  4.04948000  5.79373000  2.02093000  1
