# generated using pymatgen
data_Mo
_symmetry_space_group_name_H-M   'P 1'
_cell_length_a   8.39305754
_cell_length_b   6.90759331
_cell_length_c   3.45327568
_cell_angle_alpha   90.00000000
_cell_angle_beta   90.00000000
_cell_angle_gamma   90.00000000
_symmetry_Int_Tables_number   1
_chemical_formula_structural   Mo
_chemical_formula_sum   Mo16
_cell_volume   200.20651728
_cell_formula_units_Z   16
loop_
 _symmetry_equiv_pos_site_id
 _symmetry_equiv_pos_as_xyz
  1  'x, y, z'
loop_
 _atom_site_type_symbol
 _atom_site_label
 _atom_site_symmetry_multiplicity
 _atom_site_fract_x
 _atom_site_fract_y
 _atom_site_fract_z
 _atom_site_occupancy
  Mo  Mo0  1  1.95267000  2.33318000  0.30013900  1
  Mo  Mo1  1  1.93851000  0.59942100  2.01764000  1
  Mo  Mo2  1  -0.15296600  2.32547000  2.03326000  1
  Mo  Mo3  1  4.04110000  7.49932000  3.75113000  1
  Mo  Mo4  1  4.04300000  2.31398000  2.03472000  1
  Mo  Mo5  1  -0.14481100  4.04373000  3.74577000  1
  Mo  Mo6  1  1.95506000  5.78067000  0.29356200  1
  Mo  Mo7  1  1.96456000  4.05737000  2.02261000  1
  Mo  Mo8  1  -0.14233700  5.76095000  2.02529000  1
  Mo  Mo9  1  4.05460000  4.04654000  0.30171500  1
  Mo  Mo10  1  4.05629000  5.77157000  2.03404000  1
  Mo  Mo11  1  8.23924000  7.49679000  3.74209000  1
  Mo  Mo12  1  6.14506000  2.32749000  0.30042700  1
  Mo  Mo13  1  6.13422000  0.60648400  2.02001000  1
  Mo  Mo14  1  6.15957000  5.78088000  0.29853300  1
  Mo  Mo15  1  6.16318000  4.05617000  2.02579000  1
