# generated using pymatgen
data_Mo
_symmetry_space_group_name_H-M   'P 1'
_cell_length_a   8.63177863
_cell_length_b   6.85018295
_cell_length_c   3.41600657
_cell_angle_alpha   90.00000000
_cell_angle_beta   90.00000000
_cell_angle_gamma   90.00000000
_symmetry_Int_Tables_number   1
_chemical_formula_structural   Mo
_chemical_formula_sum   Mo16
_cell_volume   201.98594987
_cell_formula_units_Z   16
loop_
 _symmetry_equiv_pos_site_id
 _symmetry_equiv_pos_as_xyz
  1  'x, y, z'
loop_
 _atom_site_type_symbol
 _atom_site_label
 _atom_site_symmetry_multiplicity
 _atom_site_fract_x
 _atom_site_fract_y
 _atom_site_fract_z
 _atom_site_occupancy
  Mo  Mo0  1  1.88414000  2.34271000  0.31855900  1
  Mo  Mo1  1  1.89353000  0.63385000  2.01093000  1
  Mo  Mo2  1  -0.26868400  2.32683000  2.03447000  1
  Mo  Mo3  1  4.03016000  7.46924000  3.73045000  1
  Mo  Mo4  1  4.05006000  2.33497000  2.03846000  1
  Mo  Mo5  1  -0.24140300  4.04304000  3.72568000  1
  Mo  Mo6  1  1.90112000  5.76493000  0.32025000  1
  Mo  Mo7  1  1.90130000  4.05970000  2.02441000  1
  Mo  Mo8  1  -0.26193400  5.75842000  2.03515000  1
  Mo  Mo9  1  4.05855000  4.04183000  0.30967000  1
  Mo  Mo10  1  4.05469000  5.75202000  2.02720000  1
  Mo  Mo11  1  8.35815000  7.46786000  3.73026000  1
  Mo  Mo12  1  6.19335000  2.34197000  0.32193300  1
  Mo  Mo13  1  6.20398000  0.63557800  2.01416000  1
  Mo  Mo14  1  6.19651000  5.76260000  0.31602500  1
  Mo  Mo15  1  6.21469000  4.06444000  2.02639000  1
