# generated using pymatgen
data_Mo
_symmetry_space_group_name_H-M   'P 1'
_cell_length_a   8.37267920
_cell_length_b   6.91198575
_cell_length_c   3.45717788
_cell_angle_alpha   90.00000000
_cell_angle_beta   90.00000000
_cell_angle_gamma   90.00000000
_symmetry_Int_Tables_number   1
_chemical_formula_structural   Mo
_chemical_formula_sum   Mo16
_cell_volume   200.07324286
_cell_formula_units_Z   16
loop_
 _symmetry_equiv_pos_site_id
 _symmetry_equiv_pos_as_xyz
  1  'x, y, z'
loop_
 _atom_site_type_symbol
 _atom_site_label
 _atom_site_symmetry_multiplicity
 _atom_site_fract_x
 _atom_site_fract_y
 _atom_site_fract_z
 _atom_site_occupancy
  Mo  Mo0  1  1.97226000  2.32327000  0.28749700  1
  Mo  Mo1  1  1.96709000  0.58754800  2.03258000  1
  Mo  Mo2  1  -0.13046000  2.32620000  2.02230000  1
  Mo  Mo3  1  4.06453000  7.51434000  3.75977000  1
  Mo  Mo4  1  4.04597000  2.31984000  2.01756000  1
  Mo  Mo5  1  -0.15273700  4.05514000  3.74701000  1
  Mo  Mo6  1  1.95735000  5.77513000  0.30129600  1
  Mo  Mo7  1  1.95059000  4.04488000  2.02754000  1
  Mo  Mo8  1  -0.13558200  5.77935000  2.03590000  1
  Mo  Mo9  1  4.03681000  4.05325000  0.28596800  1
  Mo  Mo10  1  4.03681000  5.78000000  2.02309000  1
  Mo  Mo11  1  8.24586000  7.51182000  3.76300000  1
  Mo  Mo12  1  6.15330000  2.32022000  0.28698300  1
  Mo  Mo13  1  6.13642000  0.59051400  2.03104000  1
  Mo  Mo14  1  6.14506000  5.76972000  0.29591200  1
  Mo  Mo15  1  6.13403000  4.04877000  2.02538000  1
