# generated using pymatgen
data_Mo
_symmetry_space_group_name_H-M   'P 1'
_cell_length_a   8.36831282
_cell_length_b   6.91619062
_cell_length_c   3.45626187
_cell_angle_alpha   90.00000000
_cell_angle_beta   90.00000000
_cell_angle_gamma   90.00000000
_symmetry_Int_Tables_number   1
_chemical_formula_structural   Mo
_chemical_formula_sum   Mo16
_cell_volume   200.03753850
_cell_formula_units_Z   16
loop_
 _symmetry_equiv_pos_site_id
 _symmetry_equiv_pos_as_xyz
  1  'x, y, z'
loop_
 _atom_site_type_symbol
 _atom_site_label
 _atom_site_symmetry_multiplicity
 _atom_site_fract_x
 _atom_site_fract_y
 _atom_site_fract_z
 _atom_site_occupancy
  Mo  Mo0  1  1.96716000  2.32516000  0.29816800  1
  Mo  Mo1  1  1.95719000  0.59570400  2.02532000  1
  Mo  Mo2  1  -0.13121100  2.32621000  2.03044000  1
  Mo  Mo3  1  4.05854000  7.50338000  3.74715000  1
  Mo  Mo4  1  4.04847000  2.31642000  2.02899000  1
  Mo  Mo5  1  -0.14675200  4.04472000  3.74723000  1
  Mo  Mo6  1  1.95407000  5.77573000  0.30245300  1
  Mo  Mo7  1  1.95264000  4.05809000  2.01302000  1
  Mo  Mo8  1  -0.13479600  5.77072000  2.03616000  1
  Mo  Mo9  1  4.04618000  4.04660000  0.28798900  1
  Mo  Mo10  1  4.04588000  5.77902000  2.03958000  1
  Mo  Mo11  1  8.23686000  7.50685000  3.74975000  1
  Mo  Mo12  1  6.14995000  2.32617000  0.29795700  1
  Mo  Mo13  1  6.14008000  0.59420900  2.02251000  1
  Mo  Mo14  1  6.15097000  5.78003000  0.30586200  1
  Mo  Mo15  1  6.13646000  4.05097000  2.01115000  1
