# generated using pymatgen
data_Mo
_symmetry_space_group_name_H-M   'P 1'
_cell_length_a   8.25914192
_cell_length_b   6.94712949
_cell_length_c   3.47367835
_cell_angle_alpha   90.00000000
_cell_angle_beta   90.00000000
_cell_angle_gamma   90.00000000
_symmetry_Int_Tables_number   1
_chemical_formula_structural   Mo
_chemical_formula_sum   Mo16
_cell_volume   199.31038344
_cell_formula_units_Z   16
loop_
 _symmetry_equiv_pos_site_id
 _symmetry_equiv_pos_as_xyz
  1  'x, y, z'
loop_
 _atom_site_type_symbol
 _atom_site_label
 _atom_site_symmetry_multiplicity
 _atom_site_fract_x
 _atom_site_fract_y
 _atom_site_fract_z
 _atom_site_occupancy
  Mo  Mo0  1  1.99845000  2.32054000  0.28479600  1
  Mo  Mo1  1  1.98521000  0.57847200  2.03091000  1
  Mo  Mo2  1  -0.07535830  2.31356000  2.02806000  1
  Mo  Mo3  1  4.05569000  7.52035000  3.76024000  1
  Mo  Mo4  1  4.04329000  2.30062000  2.01971000  1
  Mo  Mo5  1  -0.09241360  4.04727000  3.77663000  1
  Mo  Mo6  1  1.98464000  5.78313000  0.27597100  1
  Mo  Mo7  1  1.98661000  4.05884000  2.03506000  1
  Mo  Mo8  1  -0.07825910  5.77287000  2.01809000  1
  Mo  Mo9  1  4.04508000  4.04909000  0.29219100  1
  Mo  Mo10  1  4.04359000  5.78732000  2.01980000  1
  Mo  Mo11  1  8.18276000  7.52706000  3.77113000  1
  Mo  Mo12  1  6.11972000  2.32276000  0.28020500  1
  Mo  Mo13  1  6.10893000  0.57685900  2.02527000  1
  Mo  Mo14  1  6.12436000  5.79273000  0.27783700  1
  Mo  Mo15  1  6.10856000  4.04855000  2.03043000  1
