# generated using pymatgen
data_Mo
_symmetry_space_group_name_H-M   'P 1'
_cell_length_a   8.58519821
_cell_length_b   6.85526234
_cell_length_c   3.42537093
_cell_angle_alpha   90.00000000
_cell_angle_beta   90.00000000
_cell_angle_gamma   90.00000000
_symmetry_Int_Tables_number   1
_chemical_formula_structural   Mo
_chemical_formula_sum   Mo16
_cell_volume   201.59604762
_cell_formula_units_Z   16
loop_
 _symmetry_equiv_pos_site_id
 _symmetry_equiv_pos_as_xyz
  1  'x, y, z'
loop_
 _atom_site_type_symbol
 _atom_site_label
 _atom_site_symmetry_multiplicity
 _atom_site_fract_x
 _atom_site_fract_y
 _atom_site_fract_z
 _atom_site_occupancy
  Mo  Mo0  1  1.89931000  2.33290000  0.30889500  1
  Mo  Mo1  1  1.89210000  0.61519000  2.02665000  1
  Mo  Mo2  1  -0.24442000  2.34683000  2.02377000  1
  Mo  Mo3  1  4.04979000  7.48513000  3.74138000  1
  Mo  Mo4  1  4.04474000  2.34597000  2.01975000  1
  Mo  Mo5  1  -0.23484900  4.05680000  3.72686000  1
  Mo  Mo6  1  1.90905000  5.75904000  0.32097300  1
  Mo  Mo7  1  1.90388000  4.03962000  2.02606000  1
  Mo  Mo8  1  -0.23166800  5.77076000  2.03401000  1
  Mo  Mo9  1  4.06404000  4.05244000  0.30106300  1
  Mo  Mo10  1  4.04960000  5.76811000  2.02200000  1
  Mo  Mo11  1  8.32913000  7.47798000  3.74217000  1
  Mo  Mo12  1  6.20014000  2.32988000  0.30960000  1
  Mo  Mo13  1  6.17290000  0.61997400  2.02870000  1
  Mo  Mo14  1  6.20724000  5.75154000  0.31616700  1
  Mo  Mo15  1  6.20381000  4.04783000  2.02659000  1
