# generated using pymatgen
data_Mo
_symmetry_space_group_name_H-M   'P 1'
_cell_length_a   7.79334579
_cell_length_b   7.08972704
_cell_length_c   3.54483652
_cell_angle_alpha   90.00000000
_cell_angle_beta   90.00000000
_cell_angle_gamma   90.00000000
_symmetry_Int_Tables_number   1
_chemical_formula_structural   Mo
_chemical_formula_sum   Mo16
_cell_volume   195.86176914
_cell_formula_units_Z   16
loop_
 _symmetry_equiv_pos_site_id
 _symmetry_equiv_pos_as_xyz
  1  'x, y, z'
loop_
 _atom_site_type_symbol
 _atom_site_label
 _atom_site_symmetry_multiplicity
 _atom_site_fract_x
 _atom_site_fract_y
 _atom_site_fract_z
 _atom_site_occupancy
  Mo  Mo0  1  0.14729800  7.58738000  3.79135000  1
  Mo  Mo1  1  2.10230000  2.28345000  0.24590600  1
  Mo  Mo2  1  2.08969000  0.51056800  2.03179000  1
  Mo  Mo3  1  0.14831800  2.27152000  2.02346000  1
  Mo  Mo4  1  4.04875000  7.59120000  3.80251000  1
  Mo  Mo5  1  5.99906000  2.28083000  0.24522100  1
  Mo  Mo6  1  5.97961000  0.51336000  2.03586000  1
  Mo  Mo7  1  4.04526000  2.26810000  2.02352000  1
  Mo  Mo8  1  7.95208000  4.04705000  0.26261000  1
  Mo  Mo9  1  2.10607000  5.83532000  0.23215400  1
  Mo  Mo10  1  2.10343000  4.05279000  2.03116000  1
  Mo  Mo11  1  0.15921500  5.81099000  2.01043000  1
  Mo  Mo12  1  4.05811000  4.04789000  0.27407000  1
  Mo  Mo13  1  6.00909000  5.82974000  3.78509000  1
  Mo  Mo14  1  6.00599000  4.05605000  2.03632000  1
  Mo  Mo15  1  4.05239000  5.81376000  2.02371000  1
