# generated using pymatgen
data_Mo
_symmetry_space_group_name_H-M   'P 1'
_cell_length_a   8.29407581
_cell_length_b   6.93777800
_cell_length_c   3.46782351
_cell_angle_alpha   90.00000000
_cell_angle_beta   90.00000000
_cell_angle_gamma   90.00000000
_symmetry_Int_Tables_number   1
_chemical_formula_structural   Mo
_chemical_formula_sum   Mo16
_cell_volume   199.54708372
_cell_formula_units_Z   16
loop_
 _symmetry_equiv_pos_site_id
 _symmetry_equiv_pos_as_xyz
  1  'x, y, z'
loop_
 _atom_site_type_symbol
 _atom_site_label
 _atom_site_symmetry_multiplicity
 _atom_site_fract_x
 _atom_site_fract_y
 _atom_site_fract_z
 _atom_site_occupancy
  Mo  Mo0  1  1.97764000  2.31117000  0.30353900  1
  Mo  Mo1  1  1.97381000  0.57485400  2.01916000  1
  Mo  Mo2  1  -0.09721080  2.32654000  2.03874000  1
  Mo  Mo3  1  4.04789000  7.51941000  3.74186000  1
  Mo  Mo4  1  4.04731000  2.32096000  2.03343000  1
  Mo  Mo5  1  -0.09929080  4.05110000  3.75749000  1
  Mo  Mo6  1  1.97564000  5.77494000  0.29309800  1
  Mo  Mo7  1  1.97467000  4.04562000  2.02571000  1
  Mo  Mo8  1  -0.10391800  5.78916000  2.02995000  1
  Mo  Mo9  1  4.05682000  4.05984000  0.28819700  1
  Mo  Mo10  1  4.04851000  5.79279000  2.02309000  1
  Mo  Mo11  1  8.19192000  7.52869000  3.74306000  1
  Mo  Mo12  1  6.12774000  2.30313000  0.30016000  1
  Mo  Mo13  1  6.13812000  0.58155900  2.01972000  1
  Mo  Mo14  1  6.13178000  5.77388000  0.28889900  1
  Mo  Mo15  1  6.11449000  4.04637000  2.02609000  1
