# generated using pymatgen
data_Mo
_symmetry_space_group_name_H-M   'P 1'
_cell_length_a   7.59101549
_cell_length_b   7.15718985
_cell_length_c   3.57909822
_cell_angle_alpha   90.00000000
_cell_angle_beta   90.00000000
_cell_angle_gamma   90.00000000
_symmetry_Int_Tables_number   1
_chemical_formula_structural   Mo
_chemical_formula_sum   Mo16
_cell_volume   194.45361976
_cell_formula_units_Z   16
loop_
 _symmetry_equiv_pos_site_id
 _symmetry_equiv_pos_as_xyz
  1  'x, y, z'
loop_
 _atom_site_type_symbol
 _atom_site_label
 _atom_site_symmetry_multiplicity
 _atom_site_fract_x
 _atom_site_fract_y
 _atom_site_fract_z
 _atom_site_occupancy
  Mo  Mo0  1  0.26598400  7.62037000  3.81756000  1
  Mo  Mo1  1  2.15507000  2.26564000  0.23761500  1
  Mo  Mo2  1  2.16407000  0.47741100  2.02091000  1
  Mo  Mo3  1  0.26902300  2.25496000  2.02714000  1
  Mo  Mo4  1  4.06073000  7.61971000  3.81178000  1
  Mo  Mo5  1  5.94443000  2.26442000  0.23948300  1
  Mo  Mo6  1  5.94933000  0.47978500  2.01786000  1
  Mo  Mo7  1  4.04929000  2.24928000  2.02726000  1
  Mo  Mo8  1  7.83337000  4.04066000  0.23949500  1
  Mo  Mo9  1  2.14407000  5.84600000  0.24242200  1
  Mo  Mo10  1  2.15580000  4.05814000  2.01854000  1
  Mo  Mo11  1  0.26003100  5.83643000  2.03425000  1
  Mo  Mo12  1  4.04159000  4.04116000  0.23365900  1
  Mo  Mo13  1  5.93639000  5.84897000  3.81575000  1
  Mo  Mo14  1  5.93578000  4.05650000  2.01440000  1
  Mo  Mo15  1  4.04402000  5.84057000  2.02279000  1
