# generated using pymatgen
data_Mo
_symmetry_space_group_name_H-M   'P 1'
_cell_length_a   8.71183652
_cell_length_b   6.82280087
_cell_length_c   3.40978789
_cell_angle_alpha   90.00000000
_cell_angle_beta   90.00000000
_cell_angle_gamma   90.00000000
_symmetry_Int_Tables_number   1
_chemical_formula_structural   Mo
_chemical_formula_sum   Mo16
_cell_volume   202.67481157
_cell_formula_units_Z   16
loop_
 _symmetry_equiv_pos_site_id
 _symmetry_equiv_pos_as_xyz
  1  'x, y, z'
loop_
 _atom_site_type_symbol
 _atom_site_label
 _atom_site_symmetry_multiplicity
 _atom_site_fract_x
 _atom_site_fract_y
 _atom_site_fract_z
 _atom_site_occupancy
  Mo  Mo0  1  1.87040000  2.33780000  0.31757800  1
  Mo  Mo1  1  1.86240000  0.62854700  2.03362000  1
  Mo  Mo2  1  -0.30531700  2.34816000  2.02546000  1
  Mo  Mo3  1  4.05746000  7.46726000  3.72413000  1
  Mo  Mo4  1  4.06221000  2.35087000  2.01874000  1
  Mo  Mo5  1  -0.31155000  4.05913000  3.74227000  1
  Mo  Mo6  1  1.86324000  5.75334000  0.31244000  1
  Mo  Mo7  1  1.87044000  4.03903000  2.04067000  1
  Mo  Mo8  1  -0.31249000  5.76344000  2.02372000  1
  Mo  Mo9  1  4.03926000  4.06383000  0.32627000  1
  Mo  Mo10  1  4.06032000  5.75502000  2.00385000  1
  Mo  Mo11  1  8.42118000  7.47159000  3.72998000  1
  Mo  Mo12  1  6.22803000  2.33141000  0.31759800  1
  Mo  Mo13  1  6.23488000  0.63551500  2.03234000  1
  Mo  Mo14  1  6.21745000  5.74972000  0.30376000  1
  Mo  Mo15  1  6.23025000  4.04534000  2.03779000  1
