# generated using pymatgen
data_Mo
_symmetry_space_group_name_H-M   'P 1'
_cell_length_a   8.42362601
_cell_length_b   6.90575624
_cell_length_c   3.44517970
_cell_angle_alpha   90.00000000
_cell_angle_beta   90.00000000
_cell_angle_gamma   90.00000000
_symmetry_Int_Tables_number   1
_chemical_formula_structural   Mo
_chemical_formula_sum   Mo16
_cell_volume   200.41129788
_cell_formula_units_Z   16
loop_
 _symmetry_equiv_pos_site_id
 _symmetry_equiv_pos_as_xyz
  1  'x, y, z'
loop_
 _atom_site_type_symbol
 _atom_site_label
 _atom_site_symmetry_multiplicity
 _atom_site_fract_x
 _atom_site_fract_y
 _atom_site_fract_z
 _atom_site_occupancy
  Mo  Mo0  1  1.94579000  2.33084000  0.29504000  1
  Mo  Mo1  1  1.93973000  0.59867000  2.02535000  1
  Mo  Mo2  1  -0.15814400  2.32026000  2.01926000  1
  Mo  Mo3  1  4.04365000  7.50041000  3.75712000  1
  Mo  Mo4  1  4.04458000  2.32245000  2.02115000  1
  Mo  Mo5  1  -0.15493700  4.04758000  3.75858000  1
  Mo  Mo6  1  1.95378000  5.77908000  0.29516700  1
  Mo  Mo7  1  1.94910000  4.05185000  2.03578000  1
  Mo  Mo8  1  -0.15420700  5.76925000  2.01845000  1
  Mo  Mo9  1  4.05502000  4.04554000  0.30912100  1
  Mo  Mo10  1  4.04987000  5.76925000  2.01240000  1
  Mo  Mo11  1  8.25857000  7.50070000  3.76131000  1
  Mo  Mo12  1  6.15423000  2.33264000  0.29564700  1
  Mo  Mo13  1  6.14150000  0.59838200  2.02485000  1
  Mo  Mo14  1  6.15717000  5.78189000  0.29088900  1
  Mo  Mo15  1  6.15065000  4.05121000  2.03471000  1
