# generated using pymatgen
data_Mo
_symmetry_space_group_name_H-M   'P 1'
_cell_length_a   7.98839786
_cell_length_b   7.02837992
_cell_length_c   3.51443744
_cell_angle_alpha   90.00000000
_cell_angle_beta   90.00000000
_cell_angle_gamma   90.00000000
_symmetry_Int_Tables_number   1
_chemical_formula_structural   Mo
_chemical_formula_sum   Mo16
_cell_volume   197.31982975
_cell_formula_units_Z   16
loop_
 _symmetry_equiv_pos_site_id
 _symmetry_equiv_pos_as_xyz
  1  'x, y, z'
loop_
 _atom_site_type_symbol
 _atom_site_label
 _atom_site_symmetry_multiplicity
 _atom_site_fract_x
 _atom_site_fract_y
 _atom_site_fract_z
 _atom_site_occupancy
  Mo  Mo0  1  0.04273980  7.57024000  3.77937000  1
  Mo  Mo1  1  2.04923000  2.29488000  0.26089300  1
  Mo  Mo2  1  2.03653000  0.52909200  2.03477000  1
  Mo  Mo3  1  0.05011270  2.30046000  2.01721000  1
  Mo  Mo4  1  4.04411000  7.56801000  3.78300000  1
  Mo  Mo5  1  6.04793000  2.28863000  0.26591000  1
  Mo  Mo6  1  6.03917000  0.53496300  2.03610000  1
  Mo  Mo7  1  4.04248000  2.28759000  2.02353000  1
  Mo  Mo8  1  8.04845000  4.05095000  0.25844400  1
  Mo  Mo9  1  2.05277000  5.80112000  0.27498900  1
  Mo  Mo10  1  2.05798000  4.05097000  2.01793000  1
  Mo  Mo11  1  0.05773840  5.80330000  2.03457000  1
  Mo  Mo12  1  4.06854000  4.05522000  0.26222300  1
  Mo  Mo13  1  6.06500000  5.80325000  3.78746000  1
  Mo  Mo14  1  6.05417000  4.04714000  2.01842000  1
  Mo  Mo15  1  4.05466000  5.81418000  2.03074000  1
