# generated using pymatgen
data_Mo
_symmetry_space_group_name_H-M   'P 1'
_cell_length_a   8.24895179
_cell_length_b   6.95260555
_cell_length_c   3.47411561
_cell_angle_alpha   90.00000000
_cell_angle_beta   90.00000000
_cell_angle_gamma   90.00000000
_symmetry_Int_Tables_number   1
_chemical_formula_structural   Mo
_chemical_formula_sum   Mo16
_cell_volume   199.24646396
_cell_formula_units_Z   16
loop_
 _symmetry_equiv_pos_site_id
 _symmetry_equiv_pos_as_xyz
  1  'x, y, z'
loop_
 _atom_site_type_symbol
 _atom_site_label
 _atom_site_symmetry_multiplicity
 _atom_site_fract_x
 _atom_site_fract_y
 _atom_site_fract_z
 _atom_site_occupancy
  Mo  Mo0  1  1.97603000  2.31154000  0.28947400  1
  Mo  Mo1  1  1.98080000  0.57320800  2.02020000  1
  Mo  Mo2  1  -0.07834990  2.31086000  2.02131000  1
  Mo  Mo3  1  4.03330000  7.52266000  3.76503000  1
  Mo  Mo4  1  4.05137000  2.31354000  2.02992000  1
  Mo  Mo5  1  -0.05596280  4.04448000  3.74541000  1
  Mo  Mo6  1  1.99049000  5.79439000  0.30451200  1
  Mo  Mo7  1  1.99834000  4.04880000  2.00803000  1
  Mo  Mo8  1  -0.07242660  5.79404000  2.03872000  1
  Mo  Mo9  1  4.06077000  4.04828000  0.28095900  1
  Mo  Mo10  1  4.06078000  5.78974000  2.03448000  1
  Mo  Mo11  1  8.16721000  7.52213000  3.75500000  1
  Mo  Mo12  1  6.09894000  2.30403000  0.29442600  1
  Mo  Mo13  1  6.11418000  0.57889100  2.02549000  1
  Mo  Mo14  1  6.10658000  5.78900000  0.30086200  1
  Mo  Mo15  1  6.11899000  4.05442000  2.01205000  1
