# generated using pymatgen
data_Mo
_symmetry_space_group_name_H-M   'P 1'
_cell_length_a   7.41343084
_cell_length_b   7.22187096
_cell_length_c   3.61260128
_cell_angle_alpha   90.00000000
_cell_angle_beta   90.00000000
_cell_angle_gamma   90.00000000
_symmetry_Int_Tables_number   1
_chemical_formula_structural   Mo
_chemical_formula_sum   Mo16
_cell_volume   193.41448513
_cell_formula_units_Z   16
loop_
 _symmetry_equiv_pos_site_id
 _symmetry_equiv_pos_as_xyz
  1  'x, y, z'
loop_
 _atom_site_type_symbol
 _atom_site_label
 _atom_site_symmetry_multiplicity
 _atom_site_fract_x
 _atom_site_fract_y
 _atom_site_fract_z
 _atom_site_occupancy
  Mo  Mo0  1  0.33918200  7.65846000  3.82480000  1
  Mo  Mo1  1  2.20301000  2.25019000  0.21962100  1
  Mo  Mo2  1  2.17686000  0.44086200  2.02129000  1
  Mo  Mo3  1  0.33722700  2.24102000  2.02422000  1
  Mo  Mo4  1  4.03924000  7.65264000  3.83613000  1
  Mo  Mo5  1  5.90145000  2.24254000  0.22100800  1
  Mo  Mo6  1  5.89238000  0.44681300  2.02597000  1
  Mo  Mo7  1  4.03910000  2.23943000  2.02794000  1
  Mo  Mo8  1  7.76320000  4.03747000  0.20534600  1
  Mo  Mo9  1  2.20870000  5.86159000  0.22941800  1
  Mo  Mo10  1  2.21352000  4.05458000  2.00228000  1
  Mo  Mo11  1  0.34511100  5.85419000  2.03549000  1
  Mo  Mo12  1  4.05448000  4.04837000  0.21669300  1
  Mo  Mo13  1  5.91317000  5.85910000  3.84628000  1
  Mo  Mo14  1  5.90584000  4.05727000  2.00745000  1
  Mo  Mo15  1  4.05410000  5.85548000  2.04347000  1
