# generated using pymatgen
data_Mo
_symmetry_space_group_name_H-M   'P 1'
_cell_length_a   8.35812269
_cell_length_b   6.91801322
_cell_length_c   3.45844722
_cell_angle_alpha   90.00000000
_cell_angle_beta   90.00000000
_cell_angle_gamma   90.00000000
_symmetry_Int_Tables_number   1
_chemical_formula_structural   Mo
_chemical_formula_sum   Mo16
_cell_volume   199.97296284
_cell_formula_units_Z   16
loop_
 _symmetry_equiv_pos_site_id
 _symmetry_equiv_pos_as_xyz
  1  'x, y, z'
loop_
 _atom_site_type_symbol
 _atom_site_label
 _atom_site_symmetry_multiplicity
 _atom_site_fract_x
 _atom_site_fract_y
 _atom_site_fract_z
 _atom_site_occupancy
  Mo  Mo0  1  1.94983000  2.32238000  0.29637200  1
  Mo  Mo1  1  1.95099000  0.59207100  2.01989000  1
  Mo  Mo2  1  -0.13449000  2.31723000  2.02259000  1
  Mo  Mo3  1  4.03267000  7.50317000  3.76030000  1
  Mo  Mo4  1  4.05017000  2.31772000  2.02812000  1
  Mo  Mo5  1  -0.11380300  4.04619000  3.75862000  1
  Mo  Mo6  1  1.96145000  5.78616000  0.28544100  1
  Mo  Mo7  1  1.97335000  4.05097000  2.03286000  1
  Mo  Mo8  1  -0.13062700  5.77635000  2.01028000  1
  Mo  Mo9  1  4.06021000  4.05241000  0.31022000  1
  Mo  Mo10  1  4.06189000  5.77739000  2.01851000  1
  Mo  Mo11  1  8.22165000  7.50801000  3.75027000  1
  Mo  Mo12  1  6.12736000  2.31634000  0.29684000  1
  Mo  Mo13  1  6.14636000  0.59654900  2.02500000  1
  Mo  Mo14  1  6.13725000  5.78567000  0.28806000  1
  Mo  Mo15  1  6.14762000  4.05139000  2.03818000  1
