# generated using pymatgen
data_Mo
_symmetry_space_group_name_H-M   'P 1'
_cell_length_a   8.22129521
_cell_length_b   6.95754373
_cell_length_c   3.47974658
_cell_angle_alpha   90.00000000
_cell_angle_beta   90.00000000
_cell_angle_gamma   90.00000000
_symmetry_Int_Tables_number   1
_chemical_formula_structural   Mo
_chemical_formula_sum   Mo16
_cell_volume   199.04157722
_cell_formula_units_Z   16
loop_
 _symmetry_equiv_pos_site_id
 _symmetry_equiv_pos_as_xyz
  1  'x, y, z'
loop_
 _atom_site_type_symbol
 _atom_site_label
 _atom_site_symmetry_multiplicity
 _atom_site_fract_x
 _atom_site_fract_y
 _atom_site_fract_z
 _atom_site_occupancy
  Mo  Mo0  1  1.99320000  2.30569000  0.28140100  1
  Mo  Mo1  1  1.98965000  0.57167700  2.02674000  1
  Mo  Mo2  1  -0.06517410  2.31301000  2.02322000  1
  Mo  Mo3  1  4.04696000  7.52484000  3.76618000  1
  Mo  Mo4  1  4.05208000  2.30655000  2.02306000  1
  Mo  Mo5  1  -0.06577770  4.04611000  3.75787000  1
  Mo  Mo6  1  1.98845000  5.78633000  0.29418900  1
  Mo  Mo7  1  2.00464000  4.05389000  2.02819000  1
  Mo  Mo8  1  -0.06927450  5.79069000  2.03448000  1
  Mo  Mo9  1  4.04361000  4.05426000  0.26986500  1
  Mo  Mo10  1  4.05675000  5.79544000  2.02340000  1
  Mo  Mo11  1  8.16574000  7.53411000  3.77431000  1
  Mo  Mo12  1  6.10175000  2.30393000  0.28341300  1
  Mo  Mo13  1  6.12046000  0.57224500  2.02234000  1
  Mo  Mo14  1  6.10331000  5.79268000  0.28900000  1
  Mo  Mo15  1  6.11232000  4.04853000  2.02258000  1
