# generated using pymatgen
data_Mo
_symmetry_space_group_name_H-M   'P 1'
_cell_length_a   8.58811007
_cell_length_b   6.84188586
_cell_length_c   3.43139577
_cell_angle_alpha   90.00000000
_cell_angle_beta   90.00000000
_cell_angle_gamma   90.00000000
_symmetry_Int_Tables_number   1
_chemical_formula_structural   Mo
_chemical_formula_sum   Mo16
_cell_volume   201.62493422
_cell_formula_units_Z   16
loop_
 _symmetry_equiv_pos_site_id
 _symmetry_equiv_pos_as_xyz
  1  'x, y, z'
loop_
 _atom_site_type_symbol
 _atom_site_label
 _atom_site_symmetry_multiplicity
 _atom_site_fract_x
 _atom_site_fract_y
 _atom_site_fract_z
 _atom_site_occupancy
  Mo  Mo0  1  1.89333000  2.33319000  0.31374600  1
  Mo  Mo1  1  1.88823000  0.62885100  2.02172000  1
  Mo  Mo2  1  -0.24904600  2.34541000  2.03250000  1
  Mo  Mo3  1  4.05382000  7.47718000  3.73445000  1
  Mo  Mo4  1  4.04843000  2.34594000  2.02897000  1
  Mo  Mo5  1  -0.23795500  4.05635000  3.72861000  1
  Mo  Mo6  1  1.90384000  5.75824000  0.31655500  1
  Mo  Mo7  1  1.90238000  4.04483000  2.02053000  1
  Mo  Mo8  1  -0.23342800  5.76355000  2.03432000  1
  Mo  Mo9  1  4.06229000  4.04875000  0.29920900  1
  Mo  Mo10  1  4.05429000  5.76268000  2.03120000  1
  Mo  Mo11  1  8.33366000  7.46728000  3.73296000  1
  Mo  Mo12  1  6.20005000  2.33237000  0.31216400  1
  Mo  Mo13  1  6.17248000  0.63163000  2.02413000  1
  Mo  Mo14  1  6.20490000  5.75180000  0.31507800  1
  Mo  Mo15  1  6.21462000  4.05194000  2.02247000  1
