# generated using pymatgen
data_Mo
_symmetry_space_group_name_H-M   'P 1'
_cell_length_a   7.34210616
_cell_length_b   7.25145277
_cell_length_c   3.62579846
_cell_angle_alpha   90.00000000
_cell_angle_beta   90.00000000
_cell_angle_gamma   90.00000000
_symmetry_Int_Tables_number   1
_chemical_formula_structural   Mo
_chemical_formula_sum   Mo16
_cell_volume   193.04090434
_cell_formula_units_Z   16
loop_
 _symmetry_equiv_pos_site_id
 _symmetry_equiv_pos_as_xyz
  1  'x, y, z'
loop_
 _atom_site_type_symbol
 _atom_site_label
 _atom_site_symmetry_multiplicity
 _atom_site_fract_x
 _atom_site_fract_y
 _atom_site_fract_z
 _atom_site_occupancy
  Mo  Mo0  1  0.36366300  7.68181000  3.84784000  1
  Mo  Mo1  1  2.19843000  2.23328000  0.19762800  1
  Mo  Mo2  1  2.20973000  0.41874100  2.03526000  1
  Mo  Mo3  1  0.37549100  2.24007000  2.00445000  1
  Mo  Mo4  1  4.04671000  7.68372000  3.85537000  1
  Mo  Mo5  1  5.88556000  2.23488000  0.20485000  1
  Mo  Mo6  1  5.88574000  0.41442700  2.03806000  1
  Mo  Mo7  1  4.04308000  2.24982000  2.01758000  1
  Mo  Mo8  1  7.72550000  4.05860000  0.20897400  1
  Mo  Mo9  1  2.21428000  5.85840000  0.21069600  1
  Mo  Mo10  1  2.22610000  4.04133000  2.02798000  1
  Mo  Mo11  1  0.38329700  5.86743000  2.01754000  1
  Mo  Mo12  1  4.06473000  4.05836000  0.21649700  1
  Mo  Mo13  1  5.88768000  5.85833000  3.83849000  1
  Mo  Mo14  1  5.89690000  4.04143000  2.03015000  1
  Mo  Mo15  1  4.05101000  5.85938000  2.02283000  1
