# generated using pymatgen
data_Mo
_symmetry_space_group_name_H-M   'P 1'
_cell_length_a   8.31736602
_cell_length_b   6.92914718
_cell_length_c   3.46512294
_cell_angle_alpha   90.00000000
_cell_angle_beta   90.00000000
_cell_angle_gamma   90.00000000
_symmetry_Int_Tables_number   1
_chemical_formula_structural   Mo
_chemical_formula_sum   Mo16
_cell_volume   199.70284298
_cell_formula_units_Z   16
loop_
 _symmetry_equiv_pos_site_id
 _symmetry_equiv_pos_as_xyz
  1  'x, y, z'
loop_
 _atom_site_type_symbol
 _atom_site_label
 _atom_site_symmetry_multiplicity
 _atom_site_fract_x
 _atom_site_fract_y
 _atom_site_fract_z
 _atom_site_occupancy
  Mo  Mo0  1  1.96397000  2.31621000  0.29676500  1
  Mo  Mo1  1  1.96065000  0.58436900  2.02260000  1
  Mo  Mo2  1  -0.11184700  2.31822000  2.02679000  1
  Mo  Mo3  1  4.04333000  7.51835000  3.75332000  1
  Mo  Mo4  1  4.04307000  2.32695000  2.03214000  1
  Mo  Mo5  1  -0.10256500  4.05129000  3.74831000  1
  Mo  Mo6  1  1.97961000  5.77344000  0.29675600  1
  Mo  Mo7  1  1.97020000  4.04967000  2.01279000  1
  Mo  Mo8  1  -0.10571200  5.78845000  2.02833000  1
  Mo  Mo9  1  4.06788000  4.04962000  0.29114800  1
  Mo  Mo10  1  4.04943000  5.78340000  2.03861000  1
  Mo  Mo11  1  8.18902000  7.51596000  3.74516000  1
  Mo  Mo12  1  6.13794000  2.31639000  0.29714900  1
  Mo  Mo13  1  6.12345000  0.58384300  2.02667000  1
  Mo  Mo14  1  6.14352000  5.77223000  0.30056300  1
  Mo  Mo15  1  6.13067000  4.05161000  2.01777000  1
