# generated using pymatgen
data_Mo
_symmetry_space_group_name_H-M   'P 1'
_cell_length_a   8.34647807
_cell_length_b   6.91981083
_cell_length_c   3.46093583
_cell_angle_alpha   90.00000000
_cell_angle_beta   90.00000000
_cell_angle_gamma   90.00000000
_symmetry_Int_Tables_number   1
_chemical_formula_structural   Mo
_chemical_formula_sum   Mo16
_cell_volume   199.88998061
_cell_formula_units_Z   16
loop_
 _symmetry_equiv_pos_site_id
 _symmetry_equiv_pos_as_xyz
  1  'x, y, z'
loop_
 _atom_site_type_symbol
 _atom_site_label
 _atom_site_symmetry_multiplicity
 _atom_site_fract_x
 _atom_site_fract_y
 _atom_site_fract_z
 _atom_site_occupancy
  Mo  Mo0  1  1.96639000  2.31366000  0.29697500  1
  Mo  Mo1  1  1.96645000  0.58751200  2.02671000  1
  Mo  Mo2  1  -0.12086200  2.32309000  2.02349000  1
  Mo  Mo3  1  4.06018000  7.51978000  3.74912000  1
  Mo  Mo4  1  4.04854000  2.32690000  2.02622000  1
  Mo  Mo5  1  -0.12679200  4.05812000  3.75161000  1
  Mo  Mo6  1  1.96592000  5.77161000  0.30392000  1
  Mo  Mo7  1  1.95634000  4.04602000  2.01725000  1
  Mo  Mo8  1  -0.11753600  5.78835000  2.03322000  1
  Mo  Mo9  1  4.04851000  4.04754000  0.28526300  1
  Mo  Mo10  1  4.04272000  5.78511000  2.03024000  1
  Mo  Mo11  1  8.22527000  7.51088000  3.75430000  1
  Mo  Mo12  1  6.14271000  2.32186000  0.29993600  1
  Mo  Mo13  1  6.12121000  0.58106500  2.02371000  1
  Mo  Mo14  1  6.13752000  5.77349000  0.30316900  1
  Mo  Mo15  1  6.13697000  4.04501000  2.01394000  1
