# generated using pymatgen
data_Mo
_symmetry_space_group_name_H-M   'P 1'
_cell_length_a   7.39450794
_cell_length_b   7.22923809
_cell_length_c   3.61601305
_cell_angle_alpha   90.00000000
_cell_angle_beta   90.00000000
_cell_angle_gamma   90.00000000
_symmetry_Int_Tables_number   1
_chemical_formula_structural   Mo
_chemical_formula_sum   Mo16
_cell_volume   193.29997479
_cell_formula_units_Z   16
loop_
 _symmetry_equiv_pos_site_id
 _symmetry_equiv_pos_as_xyz
  1  'x, y, z'
loop_
 _atom_site_type_symbol
 _atom_site_label
 _atom_site_symmetry_multiplicity
 _atom_site_fract_x
 _atom_site_fract_y
 _atom_site_fract_z
 _atom_site_occupancy
  Mo  Mo0  1  0.36897800  7.67012000  3.83169000  1
  Mo  Mo1  1  2.20840000  2.24249000  0.22097700  1
  Mo  Mo2  1  2.21403000  0.42291900  2.02962000  1
  Mo  Mo3  1  0.35383700  2.24810000  2.02369000  1
  Mo  Mo4  1  4.05992000  7.67313000  3.82700000  1
  Mo  Mo5  1  5.90093000  2.23513000  0.21937600  1
  Mo  Mo6  1  5.90661000  0.43133800  2.02872000  1
  Mo  Mo7  1  4.05131000  2.24297000  2.01792000  1
  Mo  Mo8  1  7.73487000  4.05863000  0.23755500  1
  Mo  Mo9  1  2.19700000  5.85692000  0.21139500  1
  Mo  Mo10  1  2.20198000  4.03875000  2.03399000  1
  Mo  Mo11  1  0.34570300  5.86370000  2.02003000  1
  Mo  Mo12  1  4.03276000  4.05630000  0.23288100  1
  Mo  Mo13  1  5.88840000  5.85135000  3.81668000  1
  Mo  Mo14  1  5.89775000  4.04470000  2.03184000  1
  Mo  Mo15  1  4.04303000  5.86346000  2.00063000  1
