# generated using pymatgen
data_Mo
_symmetry_space_group_name_H-M   'P 1'
_cell_length_a   7.28824845
_cell_length_b   7.27291238
_cell_length_c   3.63753319
_cell_angle_alpha   90.00000000
_cell_angle_beta   90.00000000
_cell_angle_gamma   90.00000000
_symmetry_Int_Tables_number   1
_chemical_formula_structural   Mo
_chemical_formula_sum   Mo16
_cell_volume   192.81396654
_cell_formula_units_Z   16
loop_
 _symmetry_equiv_pos_site_id
 _symmetry_equiv_pos_as_xyz
  1  'x, y, z'
loop_
 _atom_site_type_symbol
 _atom_site_label
 _atom_site_symmetry_multiplicity
 _atom_site_fract_x
 _atom_site_fract_y
 _atom_site_fract_z
 _atom_site_occupancy
  Mo  Mo0  1  0.41086200  7.69317000  3.85059000  1
  Mo  Mo1  1  2.21872000  2.22934000  0.20168500  1
  Mo  Mo2  1  2.23203000  0.40928800  2.03053000  1
  Mo  Mo3  1  0.40074600  2.22998000  2.02405000  1
  Mo  Mo4  1  4.05518000  7.69686000  3.84300000  1
  Mo  Mo5  1  5.87449000  2.23669000  0.20043900  1
  Mo  Mo6  1  5.88413000  0.40269100  2.02761000  1
  Mo  Mo7  1  4.06188000  2.24043000  2.02126000  1
  Mo  Mo8  1  7.69707000  4.05946000  0.21481600  1
  Mo  Mo9  1  2.22278000  5.85918000  0.19750800  1
  Mo  Mo10  1  2.21418000  4.04486000  2.04007000  1
  Mo  Mo11  1  0.39793200  5.87450000  2.01875000  1
  Mo  Mo12  1  4.04700000  4.05264000  0.20728100  1
  Mo  Mo13  1  5.86337000  5.86010000  3.83300000  1
  Mo  Mo14  1  5.87714000  4.04549000  2.03708000  1
  Mo  Mo15  1  4.05424000  5.86532000  2.01479000  1
