# generated using pymatgen
data_Mo
_symmetry_space_group_name_H-M   'P 1'
_cell_length_a   8.13104814
_cell_length_b   6.98658317
_cell_length_c   3.49242520
_cell_angle_alpha   90.00000000
_cell_angle_beta   90.00000000
_cell_angle_gamma   90.00000000
_symmetry_Int_Tables_number   1
_chemical_formula_structural   Mo
_chemical_formula_sum   Mo16
_cell_volume   198.39854349
_cell_formula_units_Z   16
loop_
 _symmetry_equiv_pos_site_id
 _symmetry_equiv_pos_as_xyz
  1  'x, y, z'
loop_
 _atom_site_type_symbol
 _atom_site_label
 _atom_site_symmetry_multiplicity
 _atom_site_fract_x
 _atom_site_fract_y
 _atom_site_fract_z
 _atom_site_occupancy
  Mo  Mo0  1  -0.01654340  7.53842000  3.76421000  1
  Mo  Mo1  1  2.01671000  2.29877000  0.28887000  1
  Mo  Mo2  1  2.01888000  0.56244600  2.00731000  1
  Mo  Mo3  1  -0.01718830  2.30374000  2.03079000  1
  Mo  Mo4  1  4.05052000  7.54336000  3.76927000  1
  Mo  Mo5  1  6.08237000  2.30757000  0.29139700  1
  Mo  Mo6  1  6.06979000  0.55280900  2.00959000  1
  Mo  Mo7  1  4.04122000  2.31595000  2.03828000  1
  Mo  Mo8  1  8.11705000  4.05147000  0.26913000  1
  Mo  Mo9  1  2.02534000  5.79287000  0.28257300  1
  Mo  Mo10  1  2.02987000  4.05101000  2.01816000  1
  Mo  Mo11  1  -0.00987434  5.79978000  2.02022000  1
  Mo  Mo12  1  4.04761000  4.04509000  0.27453400  1
  Mo  Mo13  1  6.07787000  5.79463000  3.78396000  1
  Mo  Mo14  1  6.09107000  4.04893000  2.02146000  1
  Mo  Mo15  1  4.04425000  5.79313000  2.03784000  1
