# generated using pymatgen
data_Mo
_symmetry_space_group_name_H-M   'P 1'
_cell_length_a   8.70892560
_cell_length_b   6.84002519
_cell_length_c   3.40175581
_cell_angle_alpha   90.00000000
_cell_angle_beta   90.00000000
_cell_angle_gamma   90.00000000
_symmetry_Int_Tables_number   1
_chemical_formula_structural   Mo
_chemical_formula_sum   Mo16
_cell_volume   202.64011196
_cell_formula_units_Z   16
loop_
 _symmetry_equiv_pos_site_id
 _symmetry_equiv_pos_as_xyz
  1  'x, y, z'
loop_
 _atom_site_type_symbol
 _atom_site_label
 _atom_site_symmetry_multiplicity
 _atom_site_fract_x
 _atom_site_fract_y
 _atom_site_fract_z
 _atom_site_occupancy
  Mo  Mo0  1  1.87214000  2.33493000  0.31930200  1
  Mo  Mo1  1  1.86457000  0.62287700  2.03206000  1
  Mo  Mo2  1  -0.30605600  2.33867000  2.02490000  1
  Mo  Mo3  1  4.06281000  7.47391000  3.72579000  1
  Mo  Mo4  1  4.06501000  2.34455000  2.01813000  1
  Mo  Mo5  1  -0.31382700  4.05644000  3.73288000  1
  Mo  Mo6  1  1.86633000  5.76300000  0.31862700  1
  Mo  Mo7  1  1.86200000  4.03983000  2.04020000  1
  Mo  Mo8  1  -0.31413000  5.76929000  2.02384000  1
  Mo  Mo9  1  4.03528000  4.05957000  0.32455600  1
  Mo  Mo10  1  4.05833000  5.75796000  2.00936000  1
  Mo  Mo11  1  8.42124000  7.47594000  3.73217000  1
  Mo  Mo12  1  6.23546000  2.33250000  0.31896200  1
  Mo  Mo13  1  6.23384000  0.62560000  2.02855000  1
  Mo  Mo14  1  6.21906000  5.76009000  0.31307300  1
  Mo  Mo15  1  6.22902000  4.04485000  2.03586000  1
