# generated using pymatgen
data_Mo
_symmetry_space_group_name_H-M   'P 1'
_cell_length_a   8.23585171
_cell_length_b   6.95482379
_cell_length_c   3.47681570
_cell_angle_alpha   90.00000000
_cell_angle_beta   90.00000000
_cell_angle_gamma   90.00000000
_symmetry_Int_Tables_number   1
_chemical_formula_structural   Mo
_chemical_formula_sum   Mo16
_cell_volume   199.14816974
_cell_formula_units_Z   16
loop_
 _symmetry_equiv_pos_site_id
 _symmetry_equiv_pos_as_xyz
  1  'x, y, z'
loop_
 _atom_site_type_symbol
 _atom_site_label
 _atom_site_symmetry_multiplicity
 _atom_site_fract_x
 _atom_site_fract_y
 _atom_site_fract_z
 _atom_site_occupancy
  Mo  Mo0  1  1.99684000  2.31027000  0.28426200  1
  Mo  Mo1  1  1.99745000  0.57345800  2.03030000  1
  Mo  Mo2  1  -0.06371230  2.30948000  2.02599000  1
  Mo  Mo3  1  4.06292000  7.53438000  3.76121000  1
  Mo  Mo4  1  4.05040000  2.31389000  2.02420000  1
  Mo  Mo5  1  -0.07551170  4.05836000  3.77544000  1
  Mo  Mo6  1  1.99108000  5.78507000  0.26998700  1
  Mo  Mo7  1  1.97850000  4.04812000  2.03564000  1
  Mo  Mo8  1  -0.06475320  5.78477000  2.01149000  1
  Mo  Mo9  1  4.04624000  4.04987000  0.29730100  1
  Mo  Mo10  1  4.04087000  5.78495000  2.02212000  1
  Mo  Mo11  1  8.17074000  7.52779000  3.76227000  1
  Mo  Mo12  1  6.11779000  2.31871000  0.28141200  1
  Mo  Mo13  1  6.09882000  0.56739900  2.02980000  1
  Mo  Mo14  1  6.11173000  5.78633000  0.27562100  1
  Mo  Mo15  1  6.10474000  4.04715000  2.03616000  1
