# generated using pymatgen
data_Mo
_symmetry_space_group_name_H-M   'P 1'
_cell_length_a   8.49786206
_cell_length_b   6.86094147
_cell_length_c   3.44618630
_cell_angle_alpha   90.00000000
_cell_angle_beta   90.00000000
_cell_angle_gamma   90.00000000
_symmetry_Int_Tables_number   1
_chemical_formula_structural   Mo
_chemical_formula_sum   Mo16
_cell_volume   200.92415174
_cell_formula_units_Z   16
loop_
 _symmetry_equiv_pos_site_id
 _symmetry_equiv_pos_as_xyz
  1  'x, y, z'
loop_
 _atom_site_type_symbol
 _atom_site_label
 _atom_site_symmetry_multiplicity
 _atom_site_fract_x
 _atom_site_fract_y
 _atom_site_fract_z
 _atom_site_occupancy
  Mo  Mo0  1  1.92481000  2.33505000  0.30731700  1
  Mo  Mo1  1  1.92651000  0.61701700  2.02730000  1
  Mo  Mo2  1  -0.19505200  2.34319000  2.02726000  1
  Mo  Mo3  1  4.04001000  7.47592000  3.74205000  1
  Mo  Mo4  1  4.04726000  2.33899000  2.01826000  1
  Mo  Mo5  1  -0.18904300  4.04731000  3.74925000  1
  Mo  Mo6  1  1.92549000  5.76009000  0.31135200  1
  Mo  Mo7  1  1.93635000  4.04906000  2.01634000  1
  Mo  Mo8  1  -0.19837900  5.76693000  2.03380000  1
  Mo  Mo9  1  4.05435000  4.05398000  0.29666200  1
  Mo  Mo10  1  4.05222000  5.76640000  2.02348000  1
  Mo  Mo11  1  8.30026000  7.48170000  3.74798000  1
  Mo  Mo12  1  6.16222000  2.33053000  0.30537600  1
  Mo  Mo13  1  6.18045000  0.62237000  2.02488000  1
  Mo  Mo14  1  6.16572000  5.76161000  0.30878600  1
  Mo  Mo15  1  6.16895000  4.04985000  2.01372000  1
