# generated using pymatgen
data_Mo
_symmetry_space_group_name_H-M   'P 1'
_cell_length_a   7.70892009
_cell_length_b   7.11764193
_cell_length_c   3.55852342
_cell_angle_alpha   90.00000000
_cell_angle_beta   90.00000000
_cell_angle_gamma   90.00000000
_symmetry_Int_Tables_number   1
_chemical_formula_structural   Mo
_chemical_formula_sum   Mo16
_cell_volume   195.25380578
_cell_formula_units_Z   16
loop_
 _symmetry_equiv_pos_site_id
 _symmetry_equiv_pos_as_xyz
  1  'x, y, z'
loop_
 _atom_site_type_symbol
 _atom_site_label
 _atom_site_symmetry_multiplicity
 _atom_site_fract_x
 _atom_site_fract_y
 _atom_site_fract_z
 _atom_site_occupancy
  Mo  Mo0  1  0.19401800  7.61342000  3.80725000  1
  Mo  Mo1  1  2.12842000  2.26894000  0.24366900  1
  Mo  Mo2  1  2.12693000  0.48212200  2.03713000  1
  Mo  Mo3  1  0.19812700  2.26740000  2.01608000  1
  Mo  Mo4  1  4.05660000  7.61644000  3.81220000  1
  Mo  Mo5  1  5.98994000  2.26658000  0.23805800  1
  Mo  Mo6  1  5.97478000  0.48467300  2.03917000  1
  Mo  Mo7  1  4.04768000  2.27788000  2.00757000  1
  Mo  Mo8  1  7.89794000  4.05379000  0.24366000  1
  Mo  Mo9  1  2.12974000  5.83229000  0.25047200  1
  Mo  Mo10  1  2.11702000  4.03892000  2.01666000  1
  Mo  Mo11  1  0.19569700  5.84148000  2.02413000  1
  Mo  Mo12  1  4.04461000  4.05469000  0.24845300  1
  Mo  Mo13  1  5.98014000  5.82197000  3.81069000  1
  Mo  Mo14  1  5.96787000  4.05037000  2.01965000  1
  Mo  Mo15  1  4.04155000  5.82903000  2.02664000  1
