# generated using pymatgen
data_Mo
_symmetry_space_group_name_H-M   'P 1'
_cell_length_a   8.34211169
_cell_length_b   6.92617816
_cell_length_c   3.45929098
_cell_angle_alpha   90.00000000
_cell_angle_beta   90.00000000
_cell_angle_gamma   90.00000000
_symmetry_Int_Tables_number   1
_chemical_formula_structural   Mo
_chemical_formula_sum   Mo16
_cell_volume   199.87420682
_cell_formula_units_Z   16
loop_
 _symmetry_equiv_pos_site_id
 _symmetry_equiv_pos_as_xyz
  1  'x, y, z'
loop_
 _atom_site_type_symbol
 _atom_site_label
 _atom_site_symmetry_multiplicity
 _atom_site_fract_x
 _atom_site_fract_y
 _atom_site_fract_z
 _atom_site_occupancy
  Mo  Mo0  1  1.96409000  2.31775000  0.30180100  1
  Mo  Mo1  1  1.96855000  0.59207500  2.02655000  1
  Mo  Mo2  1  -0.11393800  2.31738000  2.02926000  1
  Mo  Mo3  1  4.06476000  7.51156000  3.74560000  1
  Mo  Mo4  1  4.05643000  2.32533000  2.02151000  1
  Mo  Mo5  1  -0.12870800  4.04875000  3.75413000  1
  Mo  Mo6  1  1.96106000  5.77609000  0.30823900  1
  Mo  Mo7  1  1.94393000  4.05389000  2.00652000  1
  Mo  Mo8  1  -0.12031000  5.78536000  2.03784000  1
  Mo  Mo9  1  4.05130000  4.04165000  0.28417500  1
  Mo  Mo10  1  4.04349000  5.77881000  2.03751000  1
  Mo  Mo11  1  8.22156000  7.50972000  3.75610000  1
  Mo  Mo12  1  6.14888000  2.32632000  0.29759500  1
  Mo  Mo13  1  6.13645000  0.58407300  2.02200000  1
  Mo  Mo14  1  6.13831000  5.77843000  0.30889700  1
  Mo  Mo15  1  6.12202000  4.05281000  2.00299000  1
