# generated using pymatgen
data_Mo
_symmetry_space_group_name_H-M   'P 1'
_cell_length_a   8.14123731
_cell_length_b   6.98359048
_cell_length_c   3.49090934
_cell_angle_alpha   90.00000000
_cell_angle_beta   90.00000000
_cell_angle_gamma   90.00000000
_symmetry_Int_Tables_number   1
_chemical_formula_structural   Mo
_chemical_formula_sum   Mo16
_cell_volume   198.47588569
_cell_formula_units_Z   16
loop_
 _symmetry_equiv_pos_site_id
 _symmetry_equiv_pos_as_xyz
  1  'x, y, z'
loop_
 _atom_site_type_symbol
 _atom_site_label
 _atom_site_symmetry_multiplicity
 _atom_site_fract_x
 _atom_site_fract_y
 _atom_site_fract_z
 _atom_site_occupancy
  Mo  Mo0  1  -0.02942200  7.54990000  3.76661000  1
  Mo  Mo1  1  2.00327000  2.30528000  0.27590000  1
  Mo  Mo2  1  2.00374000  0.54850400  2.03444000  1
  Mo  Mo3  1  -0.02642990  2.30400000  2.02260000  1
  Mo  Mo4  1  4.03606000  7.54919000  3.76887000  1
  Mo  Mo5  1  6.07600000  2.29642000  0.27558500  1
  Mo  Mo6  1  6.09039000  0.55615000  2.03545000  1
  Mo  Mo7  1  4.05521000  2.29655000  2.01957000  1
  Mo  Mo8  1  8.13350000  4.05361000  0.28942100  1
  Mo  Mo9  1  2.01154000  5.79581000  0.26845300  1
  Mo  Mo10  1  2.01684000  4.04516000  2.03687000  1
  Mo  Mo11  1  -0.02143680  5.79938000  2.01733000  1
  Mo  Mo12  1  4.06281000  4.05701000  0.29185400  1
  Mo  Mo13  1  6.08841000  5.79318000  3.75682000  1
  Mo  Mo14  1  6.09432000  4.04724000  2.03786000  1
  Mo  Mo15  1  4.06396000  5.80261000  2.01145000  1
