# generated using pymatgen
data_Mo
_symmetry_space_group_name_H-M   'P 1'
_cell_length_a   8.30572139
_cell_length_b   6.93370187
_cell_length_c   3.46635461
_cell_angle_alpha   90.00000000
_cell_angle_beta   90.00000000
_cell_angle_gamma   90.00000000
_symmetry_Int_Tables_number   1
_chemical_formula_structural   Mo
_chemical_formula_sum   Mo16
_cell_volume   199.62526801
_cell_formula_units_Z   16
loop_
 _symmetry_equiv_pos_site_id
 _symmetry_equiv_pos_as_xyz
  1  'x, y, z'
loop_
 _atom_site_type_symbol
 _atom_site_label
 _atom_site_symmetry_multiplicity
 _atom_site_fract_x
 _atom_site_fract_y
 _atom_site_fract_z
 _atom_site_occupancy
  Mo  Mo0  1  1.97709000  2.31889000  0.28377800  1
  Mo  Mo1  1  1.98501000  0.58763300  2.03019000  1
  Mo  Mo2  1  -0.09932040  2.30948000  2.01806000  1
  Mo  Mo3  1  4.05936000  7.51441000  3.76815000  1
  Mo  Mo4  1  4.05830000  2.31102000  2.01466000  1
  Mo  Mo5  1  -0.10762000  4.04917000  3.76513000  1
  Mo  Mo6  1  1.96739000  5.79389000  0.29044700  1
  Mo  Mo7  1  1.96872000  4.05176000  2.03036000  1
  Mo  Mo8  1  -0.10181700  5.77887000  2.02342000  1
  Mo  Mo9  1  4.03289000  4.04391000  0.29162400  1
  Mo  Mo10  1  4.04933000  5.77632000  2.01748000  1
  Mo  Mo11  1  8.22009000  7.50981000  3.77542000  1
  Mo  Mo12  1  6.12141000  2.32507000  0.28360200  1
  Mo  Mo13  1  6.12490000  0.58322900  2.02631000  1
  Mo  Mo14  1  6.11126000  5.79410000  0.28899000  1
  Mo  Mo15  1  6.12727000  4.05245000  2.02603000  1
