# generated using pymatgen
data_Mo
_symmetry_space_group_name_H-M   'P 1'
_cell_length_a   8.71620387
_cell_length_b   6.80681181
_cell_length_c   3.41636777
_cell_angle_alpha   90.00000000
_cell_angle_beta   90.00000000
_cell_angle_gamma   90.00000000
_symmetry_Int_Tables_number   1
_chemical_formula_structural   Mo
_chemical_formula_sum   Mo16
_cell_volume   202.69159459
_cell_formula_units_Z   16
loop_
 _symmetry_equiv_pos_site_id
 _symmetry_equiv_pos_as_xyz
  1  'x, y, z'
loop_
 _atom_site_type_symbol
 _atom_site_label
 _atom_site_symmetry_multiplicity
 _atom_site_fract_x
 _atom_site_fract_y
 _atom_site_fract_z
 _atom_site_occupancy
  Mo  Mo0  1  1.87079000  2.34152000  0.32450000  1
  Mo  Mo1  1  1.86665000  0.63882700  2.02642000  1
  Mo  Mo2  1  -0.30472600  2.35981000  2.02917000  1
  Mo  Mo3  1  4.04505000  7.45736000  3.71827000  1
  Mo  Mo4  1  4.05315000  2.35598000  2.02423000  1
  Mo  Mo5  1  -0.30704100  4.05729000  3.74469000  1
  Mo  Mo6  1  1.86243000  5.74065000  0.31634900  1
  Mo  Mo7  1  1.88308000  4.04497000  2.02814000  1
  Mo  Mo8  1  -0.30899600  5.75425000  2.02670000  1
  Mo  Mo9  1  4.04724000  4.05954000  0.32063100  1
  Mo  Mo10  1  4.05737000  5.75681000  2.01170000  1
  Mo  Mo11  1  8.41392000  7.46330000  3.72572000  1
  Mo  Mo12  1  6.21823000  2.33701000  0.32378100  1
  Mo  Mo13  1  6.23555000  0.64486500  2.02707000  1
  Mo  Mo14  1  6.21952000  5.74214000  0.30888800  1
  Mo  Mo15  1  6.23159000  4.04566000  2.02737000  1
