# generated using pymatgen
data_Mo
_symmetry_space_group_name_H-M   'P 1'
_cell_length_a   8.65652335
_cell_length_b   6.83544183
_cell_length_c   3.41697764
_cell_angle_alpha   90.00000000
_cell_angle_beta   90.00000000
_cell_angle_gamma   90.00000000
_symmetry_Int_Tables_number   1
_chemical_formula_structural   Mo
_chemical_formula_sum   Mo16
_cell_volume   202.18653693
_cell_formula_units_Z   16
loop_
 _symmetry_equiv_pos_site_id
 _symmetry_equiv_pos_as_xyz
  1  'x, y, z'
loop_
 _atom_site_type_symbol
 _atom_site_label
 _atom_site_symmetry_multiplicity
 _atom_site_fract_x
 _atom_site_fract_y
 _atom_site_fract_z
 _atom_site_occupancy
  Mo  Mo0  1  1.89381000  2.33635000  0.32809600  1
  Mo  Mo1  1  1.89348000  0.64039100  2.00729000  1
  Mo  Mo2  1  -0.26753300  2.33418000  2.03521000  1
  Mo  Mo3  1  4.06418000  7.46229000  3.72428000  1
  Mo  Mo4  1  4.05190000  2.34606000  2.04005000  1
  Mo  Mo5  1  -0.28559200  4.04749000  3.73117000  1
  Mo  Mo6  1  1.88862000  5.75845000  0.32270400  1
  Mo  Mo7  1  1.87048000  4.05566000  2.02696000  1
  Mo  Mo8  1  -0.27526400  5.76127000  2.02808000  1
  Mo  Mo9  1  4.04419000  4.04819000  0.30948200  1
  Mo  Mo10  1  4.04012000  5.75278000  2.02384000  1
  Mo  Mo11  1  8.38456000  7.46547000  3.72925000  1
  Mo  Mo12  1  6.22651000  2.34260000  0.32920800  1
  Mo  Mo13  1  6.21305000  0.63316300  2.00563000  1
  Mo  Mo14  1  6.21161000  5.76085000  0.31781400  1
  Mo  Mo15  1  6.18934000  4.05479000  2.02397000  1
