# generated using pymatgen
data_Mo
_symmetry_space_group_name_H-M   'P 1'
_cell_length_a   8.71765932
_cell_length_b   6.80534029
_cell_length_c   3.41673923
_cell_angle_alpha   90.00000000
_cell_angle_beta   90.00000000
_cell_angle_gamma   90.00000000
_symmetry_Int_Tables_number   1
_chemical_formula_structural   Mo
_chemical_formula_sum   Mo16
_cell_volume   202.70365197
_cell_formula_units_Z   16
loop_
 _symmetry_equiv_pos_site_id
 _symmetry_equiv_pos_as_xyz
  1  'x, y, z'
loop_
 _atom_site_type_symbol
 _atom_site_label
 _atom_site_symmetry_multiplicity
 _atom_site_fract_x
 _atom_site_fract_y
 _atom_site_fract_z
 _atom_site_occupancy
  Mo  Mo0  1  1.87115000  2.34282000  0.32726100  1
  Mo  Mo1  1  1.86923000  0.64140200  2.02302000  1
  Mo  Mo2  1  -0.30487300  2.36169000  2.03042000  1
  Mo  Mo3  1  4.04066000  7.45505000  3.71712000  1
  Mo  Mo4  1  4.04953000  2.35562000  2.02618000  1
  Mo  Mo5  1  -0.30572900  4.05525000  3.74231000  1
  Mo  Mo6  1  1.86301000  5.73880000  0.31965900  1
  Mo  Mo7  1  1.88650000  4.04780000  2.02291000  1
  Mo  Mo8  1  -0.30791300  5.75194000  2.02786000  1
  Mo  Mo9  1  4.05020000  4.05604000  0.31732100  1
  Mo  Mo10  1  4.05526000  5.75846000  2.01722000  1
  Mo  Mo11  1  8.41022000  7.46080000  3.72528000  1
  Mo  Mo12  1  6.21595000  2.34051000  0.32627000  1
  Mo  Mo13  1  6.23559000  0.64553900  2.02368000  1
  Mo  Mo14  1  6.22140000  5.74281000  0.31428300  1
  Mo  Mo15  1  6.23216000  4.04547000  2.02248000  1
