# generated using pymatgen
data_Mo
_symmetry_space_group_name_H-M   'P 1'
_cell_length_a   8.09320143
_cell_length_b   6.99858713
_cell_length_c   3.49773812
_cell_angle_alpha   90.00000000
_cell_angle_beta   90.00000000
_cell_angle_gamma   90.00000000
_symmetry_Int_Tables_number   1
_chemical_formula_structural   Mo
_chemical_formula_sum   Mo16
_cell_volume   198.11529881
_cell_formula_units_Z   16
loop_
 _symmetry_equiv_pos_site_id
 _symmetry_equiv_pos_as_xyz
  1  'x, y, z'
loop_
 _atom_site_type_symbol
 _atom_site_label
 _atom_site_symmetry_multiplicity
 _atom_site_fract_x
 _atom_site_fract_y
 _atom_site_fract_z
 _atom_site_occupancy
  Mo  Mo0  1  -0.00238857  7.54479000  3.78560000  1
  Mo  Mo1  1  2.02184000  2.29969000  0.26159200  1
  Mo  Mo2  1  2.01394000  0.55406200  2.03103000  1
  Mo  Mo3  1  -0.00116944  2.29028000  2.00400000  1
  Mo  Mo4  1  4.05254000  7.55013000  3.79303000  1
  Mo  Mo5  1  6.08531000  2.30586000  0.27126100  1
  Mo  Mo6  1  6.06663000  0.54683700  2.03385000  1
  Mo  Mo7  1  4.05179000  2.30419000  2.02015000  1
  Mo  Mo8  1  8.09645000  4.05242000  0.27695000  1
  Mo  Mo9  1  2.03225000  5.80678000  0.27274800  1
  Mo  Mo10  1  2.02281000  4.04767000  2.02953000  1
  Mo  Mo11  1  0.00423130  5.80259000  2.01499000  1
  Mo  Mo12  1  4.05232000  4.04906000  0.28387900  1
  Mo  Mo13  1  6.07838000  5.80619000  3.77258000  1
  Mo  Mo14  1  6.07767000  4.04833000  2.03134000  1
  Mo  Mo15  1  4.05420000  5.79111000  2.01974000  1
