# generated using pymatgen
data_Mo
_symmetry_space_group_name_H-M   'P 1'
_cell_length_a   8.19946141
_cell_length_b   6.96544302
_cell_length_c   3.48243046
_cell_angle_alpha   90.00000000
_cell_angle_beta   90.00000000
_cell_angle_gamma   90.00000000
_symmetry_Int_Tables_number   1
_chemical_formula_structural   Mo
_chemical_formula_sum   Mo16
_cell_volume   198.89163701
_cell_formula_units_Z   16
loop_
 _symmetry_equiv_pos_site_id
 _symmetry_equiv_pos_as_xyz
  1  'x, y, z'
loop_
 _atom_site_type_symbol
 _atom_site_label
 _atom_site_symmetry_multiplicity
 _atom_site_fract_x
 _atom_site_fract_y
 _atom_site_fract_z
 _atom_site_occupancy
  Mo  Mo0  1  -0.04335800  7.52632000  3.75854000  1
  Mo  Mo1  1  2.00052000  2.30750000  0.28656200  1
  Mo  Mo2  1  2.00271000  0.57740700  2.01087000  1
  Mo  Mo3  1  -0.04766580  2.29468000  2.03336000  1
  Mo  Mo4  1  4.05750000  7.52928000  3.75981000  1
  Mo  Mo5  1  6.10557000  2.31511000  0.29431700  1
  Mo  Mo6  1  6.10005000  0.56997300  2.01134000  1
  Mo  Mo7  1  4.05492000  2.30701000  2.04456000  1
  Mo  Mo8  1  8.14403000  4.04386000  0.27764800  1
  Mo  Mo9  1  2.00007000  5.79331000  0.28239100  1
  Mo  Mo10  1  1.99694000  4.05883000  2.03052000  1
  Mo  Mo11  1  -0.04964450  5.79579000  2.02737000  1
  Mo  Mo12  1  4.03895000  4.04205000  0.27941600  1
  Mo  Mo13  1  6.09231000  5.79318000  3.76434000  1
  Mo  Mo14  1  6.09808000  4.06040000  2.02977000  1
  Mo  Mo15  1  4.04954000  5.78531000  2.02676000  1
