# generated using pymatgen
data_Mo
_symmetry_space_group_name_H-M   'P 1'
_cell_length_a   7.77878977
_cell_length_b   7.09422803
_cell_length_c   3.54739499
_cell_angle_alpha   90.00000000
_cell_angle_beta   90.00000000
_cell_angle_gamma   90.00000000
_symmetry_Int_Tables_number   1
_chemical_formula_structural   Mo
_chemical_formula_sum   Mo16
_cell_volume   195.76124884
_cell_formula_units_Z   16
loop_
 _symmetry_equiv_pos_site_id
 _symmetry_equiv_pos_as_xyz
  1  'x, y, z'
loop_
 _atom_site_type_symbol
 _atom_site_label
 _atom_site_symmetry_multiplicity
 _atom_site_fract_x
 _atom_site_fract_y
 _atom_site_fract_z
 _atom_site_occupancy
  Mo  Mo0  1  0.16698600  7.60644000  3.79755000  1
  Mo  Mo1  1  2.10734000  2.27535000  0.25496100  1
  Mo  Mo2  1  2.11765000  0.49615400  2.02304000  1
  Mo  Mo3  1  0.16744800  2.28444000  2.02831000  1
  Mo  Mo4  1  4.05042000  7.59722000  3.79272000  1
  Mo  Mo5  1  5.99359000  2.26872000  0.25469900  1
  Mo  Mo6  1  6.02360000  0.50223800  2.02234000  1
  Mo  Mo7  1  4.05396000  2.28055000  2.02707000  1
  Mo  Mo8  1  7.93082000  4.04770000  0.23748200  1
  Mo  Mo9  1  2.09712000  5.81183000  0.27084600  1
  Mo  Mo10  1  2.10399000  4.04797000  2.01293000  1
  Mo  Mo11  1  0.15029300  5.82974000  2.04649000  1
  Mo  Mo12  1  4.04339000  4.05635000  0.23244700  1
  Mo  Mo13  1  5.98718000  5.81415000  3.80902000  1
  Mo  Mo14  1  5.98049000  4.04868000  2.01090000  1
  Mo  Mo15  1  4.04693000  5.83247000  2.03180000  1
