# generated using pymatgen
data_Mo
_symmetry_space_group_name_H-M   'P 1'
_cell_length_a   8.41634774
_cell_length_b   6.89737821
_cell_length_c   3.45153093
_cell_angle_alpha   90.00000000
_cell_angle_beta   90.00000000
_cell_angle_gamma   90.00000000
_symmetry_Int_Tables_number   1
_chemical_formula_structural   Mo
_chemical_formula_sum   Mo16
_cell_volume   200.36390235
_cell_formula_units_Z   16
loop_
 _symmetry_equiv_pos_site_id
 _symmetry_equiv_pos_as_xyz
  1  'x, y, z'
loop_
 _atom_site_type_symbol
 _atom_site_label
 _atom_site_symmetry_multiplicity
 _atom_site_fract_x
 _atom_site_fract_y
 _atom_site_fract_z
 _atom_site_occupancy
  Mo  Mo0  1  1.94415000  2.33146000  0.30993600  1
  Mo  Mo1  1  1.95440000  0.60567400  2.01599000  1
  Mo  Mo2  1  -0.16141800  2.32257000  2.04177000  1
  Mo  Mo3  1  4.05915000  7.49804000  3.74386000  1
  Mo  Mo4  1  4.06119000  2.32265000  2.02401000  1
  Mo  Mo5  1  -0.16430500  4.05160000  3.75634000  1
  Mo  Mo6  1  1.93794000  5.78449000  0.29629100  1
  Mo  Mo7  1  1.93681000  4.05009000  2.02821000  1
  Mo  Mo8  1  -0.16142500  5.76790000  2.02542000  1
  Mo  Mo9  1  4.03500000  4.04236000  0.29996900  1
  Mo  Mo10  1  4.05231000  5.76238000  2.01923000  1
  Mo  Mo11  1  8.26988000  7.48765000  3.74901000  1
  Mo  Mo12  1  6.15455000  2.32943000  0.30161000  1
  Mo  Mo13  1  6.15604000  0.60906700  2.01375000  1
  Mo  Mo14  1  6.14349000  5.77621000  0.29569200  1
  Mo  Mo15  1  6.16589000  4.05844000  2.02738000  1
