# generated using pymatgen
data_Mo
_symmetry_space_group_name_H-M   'P 1'
_cell_length_a   8.52406318
_cell_length_b   6.85990739
_cell_length_c   3.43981910
_cell_angle_alpha   90.00000000
_cell_angle_beta   90.00000000
_cell_angle_gamma   90.00000000
_symmetry_Int_Tables_number   1
_chemical_formula_structural   Mo
_chemical_formula_sum   Mo16
_cell_volume   201.14095890
_cell_formula_units_Z   16
loop_
 _symmetry_equiv_pos_site_id
 _symmetry_equiv_pos_as_xyz
  1  'x, y, z'
loop_
 _atom_site_type_symbol
 _atom_site_label
 _atom_site_symmetry_multiplicity
 _atom_site_fract_x
 _atom_site_fract_y
 _atom_site_fract_z
 _atom_site_occupancy
  Mo  Mo0  1  1.92017000  2.33300000  0.31013400  1
  Mo  Mo1  1  1.93481000  0.61427100  2.02759000  1
  Mo  Mo2  1  -0.20004700  2.33960000  2.02478000  1
  Mo  Mo3  1  4.05852000  7.48381000  3.73909000  1
  Mo  Mo4  1  4.05188000  2.34912000  2.02521000  1
  Mo  Mo5  1  -0.21343500  4.05351000  3.73190000  1
  Mo  Mo6  1  1.92122000  5.76023000  0.31916500  1
  Mo  Mo7  1  1.90740000  4.04189000  2.00846000  1
  Mo  Mo8  1  -0.21006300  5.77860000  2.03749000  1
  Mo  Mo9  1  4.04655000  4.05278000  0.29778100  1
  Mo  Mo10  1  4.04027000  5.76656000  2.03560000  1
  Mo  Mo11  1  8.32012000  7.48184000  3.73336000  1
  Mo  Mo12  1  6.18402000  2.32817000  0.30975900  1
  Mo  Mo13  1  6.18726000  0.61565900  2.03091000  1
  Mo  Mo14  1  6.16882000  5.75191000  0.31701900  1
  Mo  Mo15  1  6.15844000  4.04906000  2.01193000  1
