# generated using pymatgen
data_Mo
_symmetry_space_group_name_H-M   'P 1'
_cell_length_a   8.19800595
_cell_length_b   6.96510243
_cell_length_c   3.48298764
_cell_angle_alpha   90.00000000
_cell_angle_beta   90.00000000
_cell_angle_gamma   90.00000000
_symmetry_Int_Tables_number   1
_chemical_formula_structural   Mo
_chemical_formula_sum   Mo16
_cell_volume   198.87842435
_cell_formula_units_Z   16
loop_
 _symmetry_equiv_pos_site_id
 _symmetry_equiv_pos_as_xyz
  1  'x, y, z'
loop_
 _atom_site_type_symbol
 _atom_site_label
 _atom_site_symmetry_multiplicity
 _atom_site_fract_x
 _atom_site_fract_y
 _atom_site_fract_z
 _atom_site_occupancy
  Mo  Mo0  1  -0.03827970  7.52887000  3.76310000  1
  Mo  Mo1  1  1.99975000  2.30504000  0.28339300  1
  Mo  Mo2  1  2.00316000  0.57572100  2.01600000  1
  Mo  Mo3  1  -0.04757450  2.29711000  2.02963000  1
  Mo  Mo4  1  4.06084000  7.53051000  3.76107000  1
  Mo  Mo5  1  6.10344000  2.31406000  0.29076300  1
  Mo  Mo6  1  6.10300000  0.56747000  2.01518000  1
  Mo  Mo7  1  4.05882000  2.30658000  2.04035000  1
  Mo  Mo8  1  8.14120000  4.04601000  0.28022300  1
  Mo  Mo9  1  1.99468000  5.79179000  0.28095300  1
  Mo  Mo10  1  1.99469000  4.05775000  2.03384000  1
  Mo  Mo11  1  -0.05098000  5.79558000  2.02568000  1
  Mo  Mo12  1  4.03667000  4.04374000  0.27875400  1
  Mo  Mo13  1  6.09017000  5.79408000  3.76251000  1
  Mo  Mo14  1  6.10038000  4.05674000  2.03177000  1
  Mo  Mo15  1  4.05201000  5.78895000  2.02381000  1
