# generated using pymatgen
data_Mo
_symmetry_space_group_name_H-M   'P 1'
_cell_length_a   8.16452657
_cell_length_b   6.97550440
_cell_length_c   3.48788834
_cell_angle_alpha   90.00000000
_cell_angle_beta   90.00000000
_cell_angle_gamma   90.00000000
_symmetry_Int_Tables_number   1
_chemical_formula_structural   Mo
_chemical_formula_sum   Mo16
_cell_volume   198.64113869
_cell_formula_units_Z   16
loop_
 _symmetry_equiv_pos_site_id
 _symmetry_equiv_pos_as_xyz
  1  'x, y, z'
loop_
 _atom_site_type_symbol
 _atom_site_label
 _atom_site_symmetry_multiplicity
 _atom_site_fract_x
 _atom_site_fract_y
 _atom_site_fract_z
 _atom_site_occupancy
  Mo  Mo0  1  -0.03525550  7.54260000  3.76142000  1
  Mo  Mo1  1  2.00106000  2.30153000  0.28049800  1
  Mo  Mo2  1  2.02061000  0.55268800  2.03169000  1
  Mo  Mo3  1  -0.03743060  2.30438000  2.01828000  1
  Mo  Mo4  1  4.04715000  7.55220000  3.77207000  1
  Mo  Mo5  1  6.08913000  2.29968000  0.27989600  1
  Mo  Mo6  1  6.10259000  0.55562200  2.03651000  1
  Mo  Mo7  1  4.05932000  2.31119000  2.01918000  1
  Mo  Mo8  1  8.13777000  4.06001000  0.28806000  1
  Mo  Mo9  1  2.00457000  5.79539000  0.27113300  1
  Mo  Mo10  1  1.99881000  4.03792000  2.03013000  1
  Mo  Mo11  1  -0.03751530  5.80349000  2.01125000  1
  Mo  Mo12  1  4.04862000  4.05500000  0.29873000  1
  Mo  Mo13  1  6.08490000  5.78525000  3.76141000  1
  Mo  Mo14  1  6.09985000  4.04736000  2.03560000  1
  Mo  Mo15  1  4.05131000  5.79568000  2.01625000  1
