# generated using pymatgen
data_Mo
_symmetry_space_group_name_H-M   'P 1'
_cell_length_a   8.16161565
_cell_length_b   6.97569966
_cell_length_c   3.48851538
_cell_angle_alpha   90.00000000
_cell_angle_beta   90.00000000
_cell_angle_gamma   90.00000000
_symmetry_Int_Tables_number   1
_chemical_formula_structural   Mo
_chemical_formula_sum   Mo16
_cell_volume   198.61157452
_cell_formula_units_Z   16
loop_
 _symmetry_equiv_pos_site_id
 _symmetry_equiv_pos_as_xyz
  1  'x, y, z'
loop_
 _atom_site_type_symbol
 _atom_site_label
 _atom_site_symmetry_multiplicity
 _atom_site_fract_x
 _atom_site_fract_y
 _atom_site_fract_z
 _atom_site_occupancy
  Mo  Mo0  1  -0.02569710  7.54392000  3.76332000  1
  Mo  Mo1  1  2.00506000  2.30010000  0.28095900  1
  Mo  Mo2  1  2.02144000  0.55555700  2.02978000  1
  Mo  Mo3  1  -0.02833370  2.30662000  2.02623000  1
  Mo  Mo4  1  4.05524000  7.54885000  3.76945000  1
  Mo  Mo5  1  6.08913000  2.29972000  0.27778400  1
  Mo  Mo6  1  6.10157000  0.55665900  2.03120000  1
  Mo  Mo7  1  4.05754000  2.31538000  2.02122000  1
  Mo  Mo8  1  8.13286000  4.05818000  0.27788800  1
  Mo  Mo9  1  2.00482000  5.79223000  0.27629000  1
  Mo  Mo10  1  2.00027000  4.03893000  2.02726000  1
  Mo  Mo11  1  -0.03402590  5.80255000  2.02051000  1
  Mo  Mo12  1  4.04623000  4.05758000  0.28413200  1
  Mo  Mo13  1  6.07907000  5.78458000  3.76926000  1
  Mo  Mo14  1  6.08576000  4.04723000  2.02990000  1
  Mo  Mo15  1  4.04744000  5.79190000  2.02630000  1
