# generated using pymatgen
data_Mo
_symmetry_space_group_name_H-M   'P 1'
_cell_length_a   8.10921339
_cell_length_b   6.99270290
_cell_length_c   3.49583554
_cell_angle_alpha   90.00000000
_cell_angle_beta   90.00000000
_cell_angle_gamma   90.00000000
_symmetry_Int_Tables_number   1
_chemical_formula_structural   Mo
_chemical_formula_sum   Mo16
_cell_volume   198.23247303
_cell_formula_units_Z   16
loop_
 _symmetry_equiv_pos_site_id
 _symmetry_equiv_pos_as_xyz
  1  'x, y, z'
loop_
 _atom_site_type_symbol
 _atom_site_label
 _atom_site_symmetry_multiplicity
 _atom_site_fract_x
 _atom_site_fract_y
 _atom_site_fract_z
 _atom_site_occupancy
  Mo  Mo0  1  0.00450498  7.55737000  3.77224000  1
  Mo  Mo1  1  2.02149000  2.29613000  0.29191300  1
  Mo  Mo2  1  2.01689000  0.54851000  2.01412000  1
  Mo  Mo3  1  -0.00392763  2.31041000  2.03787000  1
  Mo  Mo4  1  4.04843000  7.54706000  3.76145000  1
  Mo  Mo5  1  6.06588000  2.29712000  0.28555600  1
  Mo  Mo6  1  6.08084000  0.54665100  2.00869000  1
  Mo  Mo7  1  4.04910000  2.30378000  2.02752000  1
  Mo  Mo8  1  8.10444000  4.05072000  0.27699100  1
  Mo  Mo9  1  2.01684000  5.78615000  0.28217600  1
  Mo  Mo10  1  2.03706000  4.05012000  2.02762000  1
  Mo  Mo11  1  -0.00477577  5.80248000  2.02346000  1
  Mo  Mo12  1  4.04651000  4.05566000  0.26584900  1
  Mo  Mo13  1  6.06975000  5.79562000  3.77982000  1
  Mo  Mo14  1  6.08136000  4.04165000  2.02343000  1
  Mo  Mo15  1  4.05640000  5.81056000  2.02546000  1
