# generated using pymatgen
data_Mo
_symmetry_space_group_name_H-M   'P 1'
_cell_length_a   7.66379607
_cell_length_b   7.13234258
_cell_length_c   3.56638551
_cell_angle_alpha   90.00000000
_cell_angle_beta   90.00000000
_cell_angle_gamma   90.00000000
_symmetry_Int_Tables_number   1
_chemical_formula_structural   Mo
_chemical_formula_sum   Mo16
_cell_volume   194.94155268
_cell_formula_units_Z   16
loop_
 _symmetry_equiv_pos_site_id
 _symmetry_equiv_pos_as_xyz
  1  'x, y, z'
loop_
 _atom_site_type_symbol
 _atom_site_label
 _atom_site_symmetry_multiplicity
 _atom_site_fract_x
 _atom_site_fract_y
 _atom_site_fract_z
 _atom_site_occupancy
  Mo  Mo0  1  0.23122400  7.61094000  3.81490000  1
  Mo  Mo1  1  2.12992000  2.27456000  0.23767000  1
  Mo  Mo2  1  2.13838000  0.48658600  2.03731000  1
  Mo  Mo3  1  0.21795300  2.26051000  2.02233000  1
  Mo  Mo4  1  4.06685000  7.61306000  3.81067000  1
  Mo  Mo5  1  5.97261000  2.27213000  0.23148100  1
  Mo  Mo6  1  5.97855000  0.48935200  2.03569000  1
  Mo  Mo7  1  4.06073000  2.27037000  2.00982000  1
  Mo  Mo8  1  7.87455000  4.04908000  0.25657200  1
  Mo  Mo9  1  2.12510000  5.84302000  0.23622300  1
  Mo  Mo10  1  2.12121000  4.04501000  2.02848000  1
  Mo  Mo11  1  0.21040600  5.83063000  2.02434000  1
  Mo  Mo12  1  4.03974000  4.04858000  0.25232500  1
  Mo  Mo13  1  5.95520000  5.83312000  3.79667000  1
  Mo  Mo14  1  5.96432000  4.05706000  2.02687000  1
  Mo  Mo15  1  4.04946000  5.81600000  2.01225000  1
