# generated using pymatgen
data_Mo
_symmetry_space_group_name_H-M   'P 1'
_cell_length_a   8.51678494
_cell_length_b   6.88968128
_cell_length_c   3.42650628
_cell_angle_alpha   90.00000000
_cell_angle_beta   90.00000000
_cell_angle_gamma   90.00000000
_symmetry_Int_Tables_number   1
_chemical_formula_structural   Mo
_chemical_formula_sum   Mo16
_cell_volume   201.06030850
_cell_formula_units_Z   16
loop_
 _symmetry_equiv_pos_site_id
 _symmetry_equiv_pos_as_xyz
  1  'x, y, z'
loop_
 _atom_site_type_symbol
 _atom_site_label
 _atom_site_symmetry_multiplicity
 _atom_site_fract_x
 _atom_site_fract_y
 _atom_site_fract_z
 _atom_site_occupancy
  Mo  Mo0  1  1.92346000  2.32070000  0.30857900  1
  Mo  Mo1  1  1.91958000  0.60251100  2.02733000  1
  Mo  Mo2  1  -0.20904100  2.32546000  2.01682000  1
  Mo  Mo3  1  4.06131000  7.50374000  3.74998000  1
  Mo  Mo4  1  4.04716000  2.32978000  2.01888000  1
  Mo  Mo5  1  -0.21609100  4.05501000  3.73516000  1
  Mo  Mo6  1  1.92363000  5.77084000  0.30894300  1
  Mo  Mo7  1  1.91264000  4.04668000  2.02631000  1
  Mo  Mo8  1  -0.20340000  5.78253000  2.01350000  1
  Mo  Mo9  1  4.04803000  4.05002000  0.31637200  1
  Mo  Mo10  1  4.04502000  5.77857000  2.02826000  1
  Mo  Mo11  1  8.30752000  7.49603000  3.74229000  1
  Mo  Mo12  1  6.19176000  2.32476000  0.30843900  1
  Mo  Mo13  1  6.16642000  0.59744800  2.02767000  1
  Mo  Mo14  1  6.18555000  5.76772000  0.31682000  1
  Mo  Mo15  1  6.17967000  4.04819000  2.02814000  1
