# generated using pymatgen
data_Mo
_symmetry_space_group_name_H-M   'P 1'
_cell_length_a   7.36394045
_cell_length_b   7.24240726
_cell_length_c   3.62197709
_cell_angle_alpha   90.00000000
_cell_angle_beta   90.00000000
_cell_angle_gamma   90.00000000
_symmetry_Int_Tables_number   1
_chemical_formula_structural   Mo
_chemical_formula_sum   Mo16
_cell_volume   193.16965742
_cell_formula_units_Z   16
loop_
 _symmetry_equiv_pos_site_id
 _symmetry_equiv_pos_as_xyz
  1  'x, y, z'
loop_
 _atom_site_type_symbol
 _atom_site_label
 _atom_site_symmetry_multiplicity
 _atom_site_fract_x
 _atom_site_fract_y
 _atom_site_fract_z
 _atom_site_occupancy
  Mo  Mo0  1  0.37660300  7.67584000  3.83794000  1
  Mo  Mo1  1  2.21526000  2.23668000  0.21389900  1
  Mo  Mo2  1  2.21112000  0.43030300  2.02045000  1
  Mo  Mo3  1  0.37485200  2.23729000  2.02989000  1
  Mo  Mo4  1  4.05260000  7.66577000  3.83046000  1
  Mo  Mo5  1  5.88882000  2.23755000  0.21721000  1
  Mo  Mo6  1  5.89855000  0.42908100  2.01719000  1
  Mo  Mo7  1  4.04797000  2.23734000  2.03216000  1
  Mo  Mo8  1  7.73232000  4.04713000  0.21696400  1
  Mo  Mo9  1  2.20851000  5.85973000  0.21394400  1
  Mo  Mo10  1  2.20992000  4.05094000  2.03110000  1
  Mo  Mo11  1  0.36519000  5.86172000  2.03005000  1
  Mo  Mo12  1  4.04930000  4.05555000  0.20958000  1
  Mo  Mo13  1  5.88728000  5.86584000  3.83082000  1
  Mo  Mo14  1  5.87169000  4.04763000  2.02667000  1
  Mo  Mo15  1  4.04607000  5.86159000  2.01969000  1
