# generated using pymatgen
data_Mo
_symmetry_space_group_name_H-M   'P 1'
_cell_length_a   8.23876262
_cell_length_b   6.95474774
_cell_length_c   3.47603917
_cell_angle_alpha   90.00000000
_cell_angle_beta   90.00000000
_cell_angle_gamma   90.00000000
_symmetry_Int_Tables_number   1
_chemical_formula_structural   Mo
_chemical_formula_sum   Mo16
_cell_volume   199.17188508
_cell_formula_units_Z   16
loop_
 _symmetry_equiv_pos_site_id
 _symmetry_equiv_pos_as_xyz
  1  'x, y, z'
loop_
 _atom_site_type_symbol
 _atom_site_label
 _atom_site_symmetry_multiplicity
 _atom_site_fract_x
 _atom_site_fract_y
 _atom_site_fract_z
 _atom_site_occupancy
  Mo  Mo0  1  1.99051000  2.30301000  0.27968300  1
  Mo  Mo1  1  1.98981000  0.57250400  2.03149000  1
  Mo  Mo2  1  -0.07392270  2.31208000  2.01800000  1
  Mo  Mo3  1  4.05938000  7.53825000  3.76913000  1
  Mo  Mo4  1  4.04888000  2.31999000  2.02199000  1
  Mo  Mo5  1  -0.07613120  4.06271000  3.76855000  1
  Mo  Mo6  1  1.99104000  5.78209000  0.27227400  1
  Mo  Mo7  1  1.98574000  4.04424000  2.03904000  1
  Mo  Mo8  1  -0.06951320  5.78998000  2.00788000  1
  Mo  Mo9  1  4.04689000  4.05413000  0.29416100  1
  Mo  Mo10  1  4.04546000  5.78691000  2.02221000  1
  Mo  Mo11  1  8.16832000  7.53035000  3.76728000  1
  Mo  Mo12  1  6.11946000  2.31348000  0.28074600  1
  Mo  Mo13  1  6.10137000  0.56343200  2.03132000  1
  Mo  Mo14  1  6.11380000  5.78460000  0.28023600  1
  Mo  Mo15  1  6.12014000  4.04225000  2.03997000  1
