# generated using pymatgen
data_Mo
_symmetry_space_group_name_H-M   'P 1'
_cell_length_a   8.39014661
_cell_length_b   6.91436917
_cell_length_c   3.45086837
_cell_angle_alpha   90.00000000
_cell_angle_beta   90.00000000
_cell_angle_gamma   90.00000000
_symmetry_Int_Tables_number   1
_chemical_formula_structural   Mo
_chemical_formula_sum   Mo16
_cell_volume   200.19374635
_cell_formula_units_Z   16
loop_
 _symmetry_equiv_pos_site_id
 _symmetry_equiv_pos_as_xyz
  1  'x, y, z'
loop_
 _atom_site_type_symbol
 _atom_site_label
 _atom_site_symmetry_multiplicity
 _atom_site_fract_x
 _atom_site_fract_y
 _atom_site_fract_z
 _atom_site_occupancy
  Mo  Mo0  1  1.94701000  2.32544000  0.30913400  1
  Mo  Mo1  1  1.94323000  0.60151700  2.01637000  1
  Mo  Mo2  1  -0.15543200  2.32077000  2.04022000  1
  Mo  Mo3  1  4.03864000  7.50017000  3.73662000  1
  Mo  Mo4  1  4.04863000  2.31687000  2.03936000  1
  Mo  Mo5  1  -0.14118900  4.04411000  3.74860000  1
  Mo  Mo6  1  1.95376000  5.78144000  0.29481500  1
  Mo  Mo7  1  1.96178000  4.05978000  2.01937000  1
  Mo  Mo8  1  -0.14603500  5.76721000  2.02631000  1
  Mo  Mo9  1  4.05396000  4.04335000  0.30091100  1
  Mo  Mo10  1  4.05823000  5.77230000  2.03784000  1
  Mo  Mo11  1  8.23571000  7.49696000  3.73348000  1
  Mo  Mo12  1  6.14494000  2.32645000  0.30827400  1
  Mo  Mo13  1  6.14464000  0.60208200  2.01579000  1
  Mo  Mo14  1  6.15493000  5.78547000  0.30208400  1
  Mo  Mo15  1  6.16705000  4.05609000  2.01995000  1
