# generated using pymatgen
data_Mo
_symmetry_space_group_name_H-M   'P 1'
_cell_length_a   7.64778459
_cell_length_b   7.13944188
_cell_length_c   3.56843638
_cell_angle_alpha   90.00000000
_cell_angle_beta   90.00000000
_cell_angle_gamma   90.00000000
_symmetry_Int_Tables_number   1
_chemical_formula_structural   Mo
_chemical_formula_sum   Mo16
_cell_volume   194.83988662
_cell_formula_units_Z   16
loop_
 _symmetry_equiv_pos_site_id
 _symmetry_equiv_pos_as_xyz
  1  'x, y, z'
loop_
 _atom_site_type_symbol
 _atom_site_label
 _atom_site_symmetry_multiplicity
 _atom_site_fract_x
 _atom_site_fract_y
 _atom_site_fract_z
 _atom_site_occupancy
  Mo  Mo0  1  0.21714200  7.62173000  3.80104000  1
  Mo  Mo1  1  2.13678000  2.26564000  0.25008700  1
  Mo  Mo2  1  2.13183000  0.48015500  2.00675000  1
  Mo  Mo3  1  0.23200600  2.26565000  2.03049000  1
  Mo  Mo4  1  4.03358000  7.61314000  3.80584000  1
  Mo  Mo5  1  5.94835000  2.26160000  0.25499700  1
  Mo  Mo6  1  5.95644000  0.48219500  2.01007000  1
  Mo  Mo7  1  4.04363000  2.25914000  2.04067000  1
  Mo  Mo8  1  7.88631000  4.04076000  0.23280000  1
  Mo  Mo9  1  2.14220000  5.83283000  0.24846400  1
  Mo  Mo10  1  2.15199000  4.05674000  2.01661000  1
  Mo  Mo11  1  0.23497100  5.83708000  2.02863000  1
  Mo  Mo12  1  4.06323000  4.04854000  0.23755200  1
  Mo  Mo13  1  5.96453000  5.83812000  3.81684000  1
  Mo  Mo14  1  5.95438000  4.05096000  2.01926000  1
  Mo  Mo15  1  4.05485000  5.84573000  2.03146000  1
