# generated using pymatgen
data_Mo
_symmetry_space_group_name_H-M   'P 1'
_cell_length_a   7.47165540
_cell_length_b   7.20046821
_cell_length_c   3.60105085
_cell_angle_alpha   90.00000000
_cell_angle_beta   90.00000000
_cell_angle_gamma   90.00000000
_symmetry_Int_Tables_number   1
_chemical_formula_structural   Mo
_chemical_formula_sum   Mo16
_cell_volume   193.73443721
_cell_formula_units_Z   16
loop_
 _symmetry_equiv_pos_site_id
 _symmetry_equiv_pos_as_xyz
  1  'x, y, z'
loop_
 _atom_site_type_symbol
 _atom_site_label
 _atom_site_symmetry_multiplicity
 _atom_site_fract_x
 _atom_site_fract_y
 _atom_site_fract_z
 _atom_site_occupancy
  Mo  Mo0  1  0.31594600  7.65390000  3.83332000  1
  Mo  Mo1  1  2.19011000  2.23771000  0.22989100  1
  Mo  Mo2  1  2.20692000  0.44841300  2.01893000  1
  Mo  Mo3  1  0.32045000  2.25426000  2.02906000  1
  Mo  Mo4  1  4.05845000  7.65562000  3.82050000  1
  Mo  Mo5  1  5.92345000  2.24760000  0.22870500  1
  Mo  Mo6  1  5.92407000  0.44101500  2.01311000  1
  Mo  Mo7  1  4.04879000  2.25398000  2.02540000  1
  Mo  Mo8  1  7.77930000  4.06003000  0.23579500  1
  Mo  Mo9  1  2.18046000  5.84841000  0.22084800  1
  Mo  Mo10  1  2.16836000  4.04463000  2.04004000  1
  Mo  Mo11  1  0.31161600  5.85377000  2.01725000  1
  Mo  Mo12  1  4.04504000  4.05290000  0.22298300  1
  Mo  Mo13  1  5.91641000  5.85263000  3.81865000  1
  Mo  Mo14  1  5.90589000  4.04004000  2.03399000  1
  Mo  Mo15  1  4.03310000  5.85509000  2.01046000  1
