# generated using pymatgen
data_Mo
_symmetry_space_group_name_H-M   'P 1'
_cell_length_a   7.67107433
_cell_length_b   7.12952656
_cell_length_c   3.56536484
_cell_angle_alpha   90.00000000
_cell_angle_beta   90.00000000
_cell_angle_gamma   90.00000000
_symmetry_Int_Tables_number   1
_chemical_formula_structural   Mo
_chemical_formula_sum   Mo16
_cell_volume   194.99382524
_cell_formula_units_Z   16
loop_
 _symmetry_equiv_pos_site_id
 _symmetry_equiv_pos_as_xyz
  1  'x, y, z'
loop_
 _atom_site_type_symbol
 _atom_site_label
 _atom_site_symmetry_multiplicity
 _atom_site_fract_x
 _atom_site_fract_y
 _atom_site_fract_z
 _atom_site_occupancy
  Mo  Mo0  1  0.21507300  7.60495000  3.81511000  1
  Mo  Mo1  1  2.13101000  2.26393000  0.23841100  1
  Mo  Mo2  1  2.15047000  0.49478100  2.01893000  1
  Mo  Mo3  1  0.21347400  2.25901000  2.02115000  1
  Mo  Mo4  1  4.04313000  7.61094000  3.81395000  1
  Mo  Mo5  1  5.96461000  2.27145000  0.24346000  1
  Mo  Mo6  1  5.97680000  0.48785000  2.01936000  1
  Mo  Mo7  1  4.05632000  2.27147000  2.03052000  1
  Mo  Mo8  1  7.89158000  4.04733000  0.23085400  1
  Mo  Mo9  1  2.13668000  5.83868000  0.25574600  1
  Mo  Mo10  1  2.12700000  4.05409000  2.01439000  1
  Mo  Mo11  1  0.21163400  5.83555000  2.03837000  1
  Mo  Mo12  1  4.04058000  4.04013000  0.22949900  1
  Mo  Mo13  1  5.95553000  5.83795000  3.81714000  1
  Mo  Mo14  1  5.96790000  4.05561000  2.01353000  1
  Mo  Mo15  1  4.04713000  5.82627000  2.03423000  1
