# generated using pymatgen
data_Mo
_symmetry_space_group_name_H-M   'P 1'
_cell_length_a   7.73803261
_cell_length_b   7.10815385
_cell_length_c   3.55370784
_cell_angle_alpha   90.00000000
_cell_angle_beta   90.00000000
_cell_angle_gamma   90.00000000
_symmetry_Int_Tables_number   1
_chemical_formula_structural   Mo
_chemical_formula_sum   Mo16
_cell_volume   195.46504098
_cell_formula_units_Z   16
loop_
 _symmetry_equiv_pos_site_id
 _symmetry_equiv_pos_as_xyz
  1  'x, y, z'
loop_
 _atom_site_type_symbol
 _atom_site_label
 _atom_site_symmetry_multiplicity
 _atom_site_fract_x
 _atom_site_fract_y
 _atom_site_fract_z
 _atom_site_occupancy
  Mo  Mo0  1  0.18759700  7.61141000  3.81942000  1
  Mo  Mo1  1  2.12308000  2.27527000  0.24025700  1
  Mo  Mo2  1  2.11679000  0.49459000  2.03597000  1
  Mo  Mo3  1  0.19206400  2.27194000  2.02329000  1
  Mo  Mo4  1  4.05916000  7.60055000  3.80834000  1
  Mo  Mo5  1  5.99173000  2.27464000  0.23213800  1
  Mo  Mo6  1  5.99580000  0.49544800  2.03083000  1
  Mo  Mo7  1  4.05174000  2.26560000  2.01003000  1
  Mo  Mo8  1  7.91055000  4.04802000  0.25314800  1
  Mo  Mo9  1  2.11044000  5.82589000  0.24176200  1
  Mo  Mo10  1  2.10356000  4.05376000  2.03849000  1
  Mo  Mo11  1  0.17650800  5.81973000  2.01974000  1
  Mo  Mo12  1  4.05213000  4.05461000  0.24220400  1
  Mo  Mo13  1  5.98829000  5.83463000  3.79626000  1
  Mo  Mo14  1  5.95760000  4.04712000  2.03455000  1
  Mo  Mo15  1  4.04491000  5.82680000  2.01986000  1
