# generated using pymatgen
data_Mo
_symmetry_space_group_name_H-M   'P 1'
_cell_length_a   8.53279690
_cell_length_b   6.85464823
_cell_length_c   3.43981528
_cell_angle_alpha   90.00000000
_cell_angle_beta   90.00000000
_cell_angle_gamma   90.00000000
_symmetry_Int_Tables_number   1
_chemical_formula_structural   Mo
_chemical_formula_sum   Mo16
_cell_volume   201.19246101
_cell_formula_units_Z   16
loop_
 _symmetry_equiv_pos_site_id
 _symmetry_equiv_pos_as_xyz
  1  'x, y, z'
loop_
 _atom_site_type_symbol
 _atom_site_label
 _atom_site_symmetry_multiplicity
 _atom_site_fract_x
 _atom_site_fract_y
 _atom_site_fract_z
 _atom_site_occupancy
  Mo  Mo0  1  1.91877000  2.34053000  0.29841100  1
  Mo  Mo1  1  1.92271000  0.63010200  2.02565000  1
  Mo  Mo2  1  -0.21989100  2.33437000  2.02363000  1
  Mo  Mo3  1  4.04768000  7.47203000  3.74582000  1
  Mo  Mo4  1  4.05354000  2.32661000  2.02506000  1
  Mo  Mo5  1  -0.22257500  4.04898000  3.75626000  1
  Mo  Mo6  1  1.90867000  5.76620000  0.29673600  1
  Mo  Mo7  1  1.91994000  4.05785000  2.03861000  1
  Mo  Mo8  1  -0.22655800  5.74829000  2.02106000  1
  Mo  Mo9  1  4.04045000  4.04867000  0.30622300  1
  Mo  Mo10  1  4.05243000  5.75610000  2.01313000  1
  Mo  Mo11  1  8.32307000  7.47775000  3.75665000  1
  Mo  Mo12  1  6.17917000  2.34286000  0.30199000  1
  Mo  Mo13  1  6.20119000  0.62720400  2.02267000  1
  Mo  Mo14  1  6.17935000  5.77469000  0.29361700  1
  Mo  Mo15  1  6.18927000  4.04777000  2.03466000  1
