# generated using pymatgen
data_Mo
_symmetry_space_group_name_H-M   'P 1'
_cell_length_a   7.82245784
_cell_length_b   7.08038169
_cell_length_c   3.54007721
_cell_angle_alpha   90.00000000
_cell_angle_beta   90.00000000
_cell_angle_gamma   90.00000000
_symmetry_Int_Tables_number   1
_chemical_formula_structural   Mo
_chemical_formula_sum   Mo16
_cell_volume   196.07067114
_cell_formula_units_Z   16
loop_
 _symmetry_equiv_pos_site_id
 _symmetry_equiv_pos_as_xyz
  1  'x, y, z'
loop_
 _atom_site_type_symbol
 _atom_site_label
 _atom_site_symmetry_multiplicity
 _atom_site_fract_x
 _atom_site_fract_y
 _atom_site_fract_z
 _atom_site_occupancy
  Mo  Mo0  1  0.14068400  7.58666000  3.80264000  1
  Mo  Mo1  1  2.09648000  2.28797000  0.25196200  1
  Mo  Mo2  1  2.09197000  0.51183300  2.02540000  1
  Mo  Mo3  1  0.14518800  2.27940000  2.02160000  1
  Mo  Mo4  1  4.05540000  7.57887000  3.80634000  1
  Mo  Mo5  1  6.01241000  2.28054000  0.24778700  1
  Mo  Mo6  1  6.01892000  0.51808700  2.02760000  1
  Mo  Mo7  1  4.05065000  2.27576000  2.01691000  1
  Mo  Mo8  1  7.95669000  4.04127000  0.25778500  1
  Mo  Mo9  1  2.09013000  5.82693000  0.25292500  1
  Mo  Mo10  1  2.08559000  4.05242000  2.02087000  1
  Mo  Mo11  1  0.13261600  5.81190000  2.02110000  1
  Mo  Mo12  1  4.05675000  4.05078000  0.26164200  1
  Mo  Mo13  1  6.01103000  5.82815000  3.79521000  1
  Mo  Mo14  1  5.98520000  4.05310000  2.02406000  1
  Mo  Mo15  1  4.04782000  5.81633000  2.02609000  1
