# generated using pymatgen
data_Mo
_symmetry_space_group_name_H-M   'P 1'
_cell_length_a   7.38140738
_cell_length_b   7.23692155
_cell_length_c   3.61756063
_cell_angle_alpha   90.00000000
_cell_angle_beta   90.00000000
_cell_angle_gamma   90.00000000
_symmetry_Int_Tables_number   1
_chemical_formula_structural   Mo
_chemical_formula_sum   Mo16
_cell_volume   193.24526324
_cell_formula_units_Z   16
loop_
 _symmetry_equiv_pos_site_id
 _symmetry_equiv_pos_as_xyz
  1  'x, y, z'
loop_
 _atom_site_type_symbol
 _atom_site_label
 _atom_site_symmetry_multiplicity
 _atom_site_fract_x
 _atom_site_fract_y
 _atom_site_fract_z
 _atom_site_occupancy
  Mo  Mo0  1  0.34568100  7.65866000  3.83490000  1
  Mo  Mo1  1  2.20017000  2.24021000  0.21745100  1
  Mo  Mo2  1  2.20153000  0.44446500  2.01610000  1
  Mo  Mo3  1  0.35373800  2.23030000  2.02728000  1
  Mo  Mo4  1  4.03953000  7.66465000  3.83841000  1
  Mo  Mo5  1  5.89742000  2.25115000  0.21815700  1
  Mo  Mo6  1  5.88560000  0.43240500  2.01667000  1
  Mo  Mo7  1  4.05234000  2.24260000  2.03196000  1
  Mo  Mo8  1  7.75411000  4.04498000  0.20079800  1
  Mo  Mo9  1  2.21584000  5.86204000  0.22237000  1
  Mo  Mo10  1  2.19697000  4.05981000  2.01603000  1
  Mo  Mo11  1  0.36348100  5.85960000  2.02667000  1
  Mo  Mo12  1  4.05726000  4.03701000  0.20418800  1
  Mo  Mo13  1  5.89998000  5.86312000  3.84933000  1
  Mo  Mo14  1  5.90151000  4.05711000  2.01777000  1
  Mo  Mo15  1  4.05342000  5.85189000  2.04435000  1
