# generated using pymatgen
data_Mo
_symmetry_space_group_name_H-M   'P 1'
_cell_length_a   8.25186367
_cell_length_b   6.95069820
_cell_length_c   3.47412610
_cell_angle_alpha   90.00000000
_cell_angle_beta   90.00000000
_cell_angle_gamma   90.00000000
_symmetry_Int_Tables_number   1
_chemical_formula_structural   Mo
_chemical_formula_sum   Mo16
_cell_volume   199.26271975
_cell_formula_units_Z   16
loop_
 _symmetry_equiv_pos_site_id
 _symmetry_equiv_pos_as_xyz
  1  'x, y, z'
loop_
 _atom_site_type_symbol
 _atom_site_label
 _atom_site_symmetry_multiplicity
 _atom_site_fract_x
 _atom_site_fract_y
 _atom_site_fract_z
 _atom_site_occupancy
  Mo  Mo0  1  1.98269000  2.31766000  0.28892300  1
  Mo  Mo1  1  1.98418000  0.57686000  2.02400000  1
  Mo  Mo2  1  -0.07511480  2.30912000  2.02617000  1
  Mo  Mo3  1  4.03343000  7.51838000  3.75841000  1
  Mo  Mo4  1  4.04899000  2.30458000  2.03108000  1
  Mo  Mo5  1  -0.06028810  4.04165000  3.75162000  1
  Mo  Mo6  1  1.99048000  5.79427000  0.29988200  1
  Mo  Mo7  1  1.99671000  4.05587000  2.00775000  1
  Mo  Mo8  1  -0.07160930  5.78437000  2.04127000  1
  Mo  Mo9  1  4.05910000  4.04518000  0.28234000  1
  Mo  Mo10  1  4.05678000  5.78844000  2.03632000  1
  Mo  Mo11  1  8.17039000  7.52087000  3.75363000  1
  Mo  Mo12  1  6.09842000  2.31016000  0.29121300  1
  Mo  Mo13  1  6.11117000  0.58312100  2.02752000  1
  Mo  Mo14  1  6.11019000  5.79251000  0.29533200  1
  Mo  Mo15  1  6.11262000  4.05698000  2.01040000  1
