# generated using pymatgen
data_Mo
_symmetry_space_group_name_H-M   'P 1'
_cell_length_a   8.09756876
_cell_length_b   6.99508435
_cell_length_c   3.49806714
_cell_angle_alpha   90.00000000
_cell_angle_beta   90.00000000
_cell_angle_gamma   90.00000000
_symmetry_Int_Tables_number   1
_chemical_formula_structural   Mo
_chemical_formula_sum   Mo16
_cell_volume   198.14163429
_cell_formula_units_Z   16
loop_
 _symmetry_equiv_pos_site_id
 _symmetry_equiv_pos_as_xyz
  1  'x, y, z'
loop_
 _atom_site_type_symbol
 _atom_site_label
 _atom_site_symmetry_multiplicity
 _atom_site_fract_x
 _atom_site_fract_y
 _atom_site_fract_z
 _atom_site_occupancy
  Mo  Mo0  1  -0.01596680  7.53650000  3.77125000  1
  Mo  Mo1  1  2.02399000  2.31030000  0.26760400  1
  Mo  Mo2  1  2.02076000  0.55710200  2.02821000  1
  Mo  Mo3  1  -0.00262373  2.29748000  2.01773000  1
  Mo  Mo4  1  4.04121000  7.54345000  3.78148000  1
  Mo  Mo5  1  6.07981000  2.30610000  0.27352500  1
  Mo  Mo6  1  6.06311000  0.56067700  2.03308000  1
  Mo  Mo7  1  4.04102000  2.29837000  2.02706000  1
  Mo  Mo8  1  8.10591000  4.04669000  0.28185800  1
  Mo  Mo9  1  2.03630000  5.80891000  0.26746400  1
  Mo  Mo10  1  2.02758000  4.05262000  2.02581000  1
  Mo  Mo11  1  0.00579202  5.79019000  2.02140000  1
  Mo  Mo12  1  4.06414000  4.04413000  0.29141900  1
  Mo  Mo13  1  6.08716000  5.80353000  3.76467000  1
  Mo  Mo14  1  6.07730000  4.05656000  2.02932000  1
  Mo  Mo15  1  4.04695000  5.78738000  2.02005000  1
