# generated using pymatgen
data_Mo
_symmetry_space_group_name_H-M   'P 1'
_cell_length_a   7.32318330
_cell_length_b   7.26017797
_cell_length_c   3.62950921
_cell_angle_alpha   90.00000000
_cell_angle_beta   90.00000000
_cell_angle_gamma   90.00000000
_symmetry_Int_Tables_number   1
_chemical_formula_structural   Mo
_chemical_formula_sum   Mo16
_cell_volume   192.97234490
_cell_formula_units_Z   16
loop_
 _symmetry_equiv_pos_site_id
 _symmetry_equiv_pos_as_xyz
  1  'x, y, z'
loop_
 _atom_site_type_symbol
 _atom_site_label
 _atom_site_symmetry_multiplicity
 _atom_site_fract_x
 _atom_site_fract_y
 _atom_site_fract_z
 _atom_site_occupancy
  Mo  Mo0  1  0.39973700  7.68248000  3.83663000  1
  Mo  Mo1  1  2.22342000  2.23651000  0.21899100  1
  Mo  Mo2  1  2.22584000  0.41449800  2.02837000  1
  Mo  Mo3  1  0.38667400  2.23513000  2.03335000  1
  Mo  Mo4  1  4.05679000  7.68455000  3.83125000  1
  Mo  Mo5  1  5.88311000  2.23442000  0.20962300  1
  Mo  Mo6  1  5.88907000  0.41842700  2.02544000  1
  Mo  Mo7  1  4.06116000  2.23557000  2.01524000  1
  Mo  Mo8  1  7.70368000  4.05170000  0.22353100  1
  Mo  Mo9  1  2.21423000  5.86450000  0.20340400  1
  Mo  Mo10  1  2.21045000  4.04473000  2.03211000  1
  Mo  Mo11  1  0.38217600  5.87111000  2.01780000  1
  Mo  Mo12  1  4.03211000  4.05066000  0.21814800  1
  Mo  Mo13  1  5.87306000  5.85758000  3.83279000  1
  Mo  Mo14  1  5.88384000  4.05214000  2.03042000  1
  Mo  Mo15  1  4.05147000  5.86600000  2.01339000  1
