# generated using pymatgen
data_Mo
_symmetry_space_group_name_H-M   'P 1'
_cell_length_a   7.92726189
_cell_length_b   7.04747438
_cell_length_c   3.52360606
_cell_angle_alpha   90.00000000
_cell_angle_beta   90.00000000
_cell_angle_gamma   90.00000000
_symmetry_Int_Tables_number   1
_chemical_formula_structural   Mo
_chemical_formula_sum   Mo16
_cell_volume   196.85391685
_cell_formula_units_Z   16
loop_
 _symmetry_equiv_pos_site_id
 _symmetry_equiv_pos_as_xyz
  1  'x, y, z'
loop_
 _atom_site_type_symbol
 _atom_site_label
 _atom_site_symmetry_multiplicity
 _atom_site_fract_x
 _atom_site_fract_y
 _atom_site_fract_z
 _atom_site_occupancy
  Mo  Mo0  1  0.09294120  7.57045000  3.78257000  1
  Mo  Mo1  1  2.07725000  2.28465000  0.26742900  1
  Mo  Mo2  1  2.08014000  0.52431300  2.03069000  1
  Mo  Mo3  1  0.08733700  2.28537000  2.03651000  1
  Mo  Mo4  1  4.05304000  7.57895000  3.77836000  1
  Mo  Mo5  1  6.03830000  2.28335000  0.25799800  1
  Mo  Mo6  1  6.03283000  0.52819500  2.02826000  1
  Mo  Mo7  1  4.06074000  2.28669000  2.01870000  1
  Mo  Mo8  1  8.01466000  4.05234000  0.26402900  1
  Mo  Mo9  1  2.07199000  5.81579000  0.26474300  1
  Mo  Mo10  1  2.04369000  4.04755000  2.01851000  1
  Mo  Mo11  1  0.08162130  5.81969000  2.03505000  1
  Mo  Mo12  1  4.04029000  4.04566000  0.26021200  1
  Mo  Mo13  1  6.02966000  5.80604000  3.78675000  1
  Mo  Mo14  1  6.02185000  4.05726000  2.01725000  1
  Mo  Mo15  1  4.04639000  5.81370000  2.02933000  1
