# generated using pymatgen
data_Mo
_symmetry_space_group_name_H-M   'P 1'
_cell_length_a   8.11649164
_cell_length_b   6.99066657
_cell_length_c   3.49469590
_cell_angle_alpha   90.00000000
_cell_angle_beta   90.00000000
_cell_angle_gamma   90.00000000
_symmetry_Int_Tables_number   1
_chemical_formula_structural   Mo
_chemical_formula_sum   Mo16
_cell_volume   198.28795072
_cell_formula_units_Z   16
loop_
 _symmetry_equiv_pos_site_id
 _symmetry_equiv_pos_as_xyz
  1  'x, y, z'
loop_
 _atom_site_type_symbol
 _atom_site_label
 _atom_site_symmetry_multiplicity
 _atom_site_fract_x
 _atom_site_fract_y
 _atom_site_fract_z
 _atom_site_occupancy
  Mo  Mo0  1  -0.00281046  7.55224000  3.78567000  1
  Mo  Mo1  1  2.02495000  2.30160000  0.26786800  1
  Mo  Mo2  1  2.02319000  0.54908100  2.03882000  1
  Mo  Mo3  1  -0.00899170  2.29918000  2.01527000  1
  Mo  Mo4  1  4.05437000  7.54658000  3.77949000  1
  Mo  Mo5  1  6.08774000  2.30121000  0.26733100  1
  Mo  Mo6  1  6.09912000  0.55028800  2.03475000  1
  Mo  Mo7  1  4.05869000  2.29855000  2.01112000  1
  Mo  Mo8  1  8.09686000  4.05033000  0.28249600  1
  Mo  Mo9  1  2.01512000  5.79903000  0.27778400  1
  Mo  Mo10  1  2.01156000  4.04577000  2.03244000  1
  Mo  Mo11  1  -0.01980610  5.80271000  2.02522000  1
  Mo  Mo12  1  4.03896000  4.05660000  0.27606300  1
  Mo  Mo13  1  6.08011000  5.79994000  3.76768000  1
  Mo  Mo14  1  6.07335000  4.04622000  2.02820000  1
  Mo  Mo15  1  4.05109000  5.80065000  2.01508000  1
