# generated using pymatgen
data_Mo
_symmetry_space_group_name_H-M   'P 1'
_cell_length_a   7.70600916
_cell_length_b   7.11814162
_cell_length_c   3.55918050
_cell_angle_alpha   90.00000000
_cell_angle_beta   90.00000000
_cell_angle_gamma   90.00000000
_symmetry_Int_Tables_number   1
_chemical_formula_structural   Mo
_chemical_formula_sum   Mo16
_cell_volume   195.22982216
_cell_formula_units_Z   16
loop_
 _symmetry_equiv_pos_site_id
 _symmetry_equiv_pos_as_xyz
  1  'x, y, z'
loop_
 _atom_site_type_symbol
 _atom_site_label
 _atom_site_symmetry_multiplicity
 _atom_site_fract_x
 _atom_site_fract_y
 _atom_site_fract_z
 _atom_site_occupancy
  Mo  Mo0  1  0.20731000  7.61419000  3.80282000  1
  Mo  Mo1  1  2.13520000  2.26277000  0.24988000  1
  Mo  Mo2  1  2.13035000  0.48139600  2.03194000  1
  Mo  Mo3  1  0.20243900  2.27468000  2.02246000  1
  Mo  Mo4  1  4.05900000  7.61625000  3.80280000  1
  Mo  Mo5  1  5.98311000  2.26062000  0.24568200  1
  Mo  Mo6  1  5.97245000  0.48507400  2.03133000  1
  Mo  Mo7  1  4.05171000  2.27682000  2.01399000  1
  Mo  Mo8  1  7.89309000  4.05503000  0.24163000  1
  Mo  Mo9  1  2.12630000  5.82993000  0.25760700  1
  Mo  Mo10  1  2.11797000  4.03912000  2.01188000  1
  Mo  Mo11  1  0.19733900  5.84186000  2.03283000  1
  Mo  Mo12  1  4.03457000  4.05598000  0.24132000  1
  Mo  Mo13  1  5.97298000  5.82261000  3.81503000  1
  Mo  Mo14  1  5.96668000  4.04710000  2.01159000  1
  Mo  Mo15  1  4.04350000  5.83654000  2.02803000  1
