# generated using pymatgen
data_Mo
_symmetry_space_group_name_H-M   'P 1'
_cell_length_a   8.53134049
_cell_length_b   6.86997831
_cell_length_c   3.43246531
_cell_angle_alpha   90.00000000
_cell_angle_beta   90.00000000
_cell_angle_gamma   90.00000000
_symmetry_Int_Tables_number   1
_chemical_formula_structural   Mo
_chemical_formula_sum   Mo16
_cell_volume   201.17721822
_cell_formula_units_Z   16
loop_
 _symmetry_equiv_pos_site_id
 _symmetry_equiv_pos_as_xyz
  1  'x, y, z'
loop_
 _atom_site_type_symbol
 _atom_site_label
 _atom_site_symmetry_multiplicity
 _atom_site_fract_x
 _atom_site_fract_y
 _atom_site_fract_z
 _atom_site_occupancy
  Mo  Mo0  1  1.91930000  2.33575000  0.30266800  1
  Mo  Mo1  1  1.92748000  0.62132800  2.02713000  1
  Mo  Mo2  1  -0.21611900  2.33090000  2.02353000  1
  Mo  Mo3  1  4.04838000  7.48107000  3.73937000  1
  Mo  Mo4  1  4.05347000  2.32706000  2.02684000  1
  Mo  Mo5  1  -0.22091300  4.05067000  3.74813000  1
  Mo  Mo6  1  1.91080000  5.76789000  0.30412600  1
  Mo  Mo7  1  1.91808000  4.05590000  2.03430000  1
  Mo  Mo8  1  -0.22498100  5.75523000  2.02554000  1
  Mo  Mo9  1  4.04033000  4.05012000  0.30693000  1
  Mo  Mo10  1  4.04970000  5.75947000  2.01717000  1
  Mo  Mo11  1  8.32309000  7.48672000  3.74870000  1
  Mo  Mo12  1  6.17925000  2.33762000  0.30670100  1
  Mo  Mo13  1  6.20238000  0.61804100  2.02521000  1
  Mo  Mo14  1  6.17586000  5.77492000  0.29981700  1
  Mo  Mo15  1  6.18255000  4.04729000  2.03137000  1
