# generated using pymatgen
data_Mo
_symmetry_space_group_name_H-M   'P 1'
_cell_length_a   7.70746462
_cell_length_b   7.11839515
_cell_length_c   3.55867743
_cell_angle_alpha   90.00000000
_cell_angle_beta   90.00000000
_cell_angle_gamma   90.00000000
_symmetry_Int_Tables_number   1
_chemical_formula_structural   Mo
_chemical_formula_sum   Mo16
_cell_volume   195.24605018
_cell_formula_units_Z   16
loop_
 _symmetry_equiv_pos_site_id
 _symmetry_equiv_pos_as_xyz
  1  'x, y, z'
loop_
 _atom_site_type_symbol
 _atom_site_label
 _atom_site_symmetry_multiplicity
 _atom_site_fract_x
 _atom_site_fract_y
 _atom_site_fract_z
 _atom_site_occupancy
  Mo  Mo0  1  0.20076700  7.61438000  3.80472000  1
  Mo  Mo1  1  2.13237000  2.26562000  0.24725900  1
  Mo  Mo2  1  2.12869000  0.48073800  2.03495000  1
  Mo  Mo3  1  0.20034800  2.27115000  2.01896000  1
  Mo  Mo4  1  4.05797000  7.61700000  3.80748000  1
  Mo  Mo5  1  5.98711000  2.26290000  0.24202600  1
  Mo  Mo6  1  5.97343000  0.48429900  2.03578000  1
  Mo  Mo7  1  4.04943000  2.27764000  2.00989000  1
  Mo  Mo8  1  7.89499000  4.05462000  0.24287200  1
  Mo  Mo9  1  2.12848000  5.83136000  0.25459700  1
  Mo  Mo10  1  2.11763000  4.03821000  2.01352000  1
  Mo  Mo11  1  0.19645900  5.84256000  2.02847000  1
  Mo  Mo12  1  4.03904000  4.05575000  0.24539700  1
  Mo  Mo13  1  5.97674000  5.82194000  3.81321000  1
  Mo  Mo14  1  5.96694000  4.04860000  2.01502000  1
  Mo  Mo15  1  4.04216000  5.83323000  2.02718000  1
