# generated using pymatgen
data_Mo
_symmetry_space_group_name_H-M   'P 1'
_cell_length_a   7.37121820
_cell_length_b   7.24097180
_cell_length_c   3.61926389
_cell_angle_alpha   90.00000000
_cell_angle_beta   90.00000000
_cell_angle_gamma   90.00000000
_symmetry_Int_Tables_number   1
_chemical_formula_structural   Mo
_chemical_formula_sum   Mo16
_cell_volume   193.17742525
_cell_formula_units_Z   16
loop_
 _symmetry_equiv_pos_site_id
 _symmetry_equiv_pos_as_xyz
  1  'x, y, z'
loop_
 _atom_site_type_symbol
 _atom_site_label
 _atom_site_symmetry_multiplicity
 _atom_site_fract_x
 _atom_site_fract_y
 _atom_site_fract_z
 _atom_site_occupancy
  Mo  Mo0  1  0.35550700  7.67633000  3.83669000  1
  Mo  Mo1  1  2.19501000  2.23768000  0.20325800  1
  Mo  Mo2  1  2.20324000  0.41896400  2.04336000  1
  Mo  Mo3  1  0.36179600  2.24891000  2.00805000  1
  Mo  Mo4  1  4.05589000  7.67970000  3.84529000  1
  Mo  Mo5  1  5.88961000  2.23249000  0.20477300  1
  Mo  Mo6  1  5.88537000  0.42526100  2.04794000  1
  Mo  Mo7  1  4.04491000  2.24816000  2.01106000  1
  Mo  Mo8  1  7.73167000  4.05974000  0.21761800  1
  Mo  Mo9  1  2.19804000  5.85939000  0.21173200  1
  Mo  Mo10  1  2.21934000  4.03627000  2.02558000  1
  Mo  Mo11  1  0.37259600  5.86081000  2.02099000  1
  Mo  Mo12  1  4.05731000  4.06133000  0.22630800  1
  Mo  Mo13  1  5.89591000  5.85082000  3.82924000  1
  Mo  Mo14  1  5.91123000  4.04401000  2.02974000  1
  Mo  Mo15  1  4.05133000  5.86015000  2.01912000  1
