# generated using pymatgen
data_Mo
_symmetry_space_group_name_H-M   'P 1'
_cell_length_a   7.51386848
_cell_length_b   7.18355113
_cell_length_c   3.59362268
_cell_angle_alpha   90.00000000
_cell_angle_beta   90.00000000
_cell_angle_gamma   90.00000000
_symmetry_Int_Tables_number   1
_chemical_formula_structural   Mo
_chemical_formula_sum   Mo16
_cell_volume   193.97030674
_cell_formula_units_Z   16
loop_
 _symmetry_equiv_pos_site_id
 _symmetry_equiv_pos_as_xyz
  1  'x, y, z'
loop_
 _atom_site_type_symbol
 _atom_site_label
 _atom_site_symmetry_multiplicity
 _atom_site_fract_x
 _atom_site_fract_y
 _atom_site_fract_z
 _atom_site_occupancy
  Mo  Mo0  1  0.30071200  7.63482000  3.82264000  1
  Mo  Mo1  1  2.18004000  2.26055000  0.23985100  1
  Mo  Mo2  1  2.17832000  0.46492300  2.01122000  1
  Mo  Mo3  1  0.29487800  2.25465000  2.03856000  1
  Mo  Mo4  1  4.05159000  7.63166000  3.81373000  1
  Mo  Mo5  1  5.92941000  2.26304000  0.23521600  1
  Mo  Mo6  1  5.94065000  0.46519100  2.00740000  1
  Mo  Mo7  1  4.06203000  2.24671000  2.03049000  1
  Mo  Mo8  1  7.80288000  4.03972000  0.23021500  1
  Mo  Mo9  1  2.16594000  5.84716000  0.23383200  1
  Mo  Mo10  1  2.15341000  4.06139000  2.02118000  1
  Mo  Mo11  1  0.28507100  5.83670000  2.03034000  1
  Mo  Mo12  1  4.04094000  4.03959000  0.22118700  1
  Mo  Mo13  1  5.92853000  5.85149000  3.82581000  1
  Mo  Mo14  1  5.91999000  4.05704000  2.01778000  1
  Mo  Mo15  1  4.05174000  5.84537000  2.02690000  1
