# generated using pymatgen
data_Mo
_symmetry_space_group_name_H-M   'P 1'
_cell_length_a   8.33192252
_cell_length_b   6.92880285
_cell_length_c   3.46094847
_cell_angle_alpha   90.00000000
_cell_angle_beta   90.00000000
_cell_angle_gamma   90.00000000
_symmetry_Int_Tables_number   1
_chemical_formula_structural   Mo
_chemical_formula_sum   Mo16
_cell_volume   199.80141492
_cell_formula_units_Z   16
loop_
 _symmetry_equiv_pos_site_id
 _symmetry_equiv_pos_as_xyz
  1  'x, y, z'
loop_
 _atom_site_type_symbol
 _atom_site_label
 _atom_site_symmetry_multiplicity
 _atom_site_fract_x
 _atom_site_fract_y
 _atom_site_fract_z
 _atom_site_occupancy
  Mo  Mo0  1  1.97177000  2.32357000  0.28708400  1
  Mo  Mo1  1  1.97281000  0.58598900  2.02757000  1
  Mo  Mo2  1  -0.11615300  2.31531000  2.02601000  1
  Mo  Mo3  1  4.04689000  7.50830000  3.76393000  1
  Mo  Mo4  1  4.05214000  2.30722000  2.01896000  1
  Mo  Mo5  1  -0.12032400  4.04561000  3.76011000  1
  Mo  Mo6  1  1.96306000  5.79277000  0.28397600  1
  Mo  Mo7  1  1.97331000  4.05094000  2.04122000  1
  Mo  Mo8  1  -0.12295500  5.77405000  2.01966000  1
  Mo  Mo9  1  4.03857000  4.05345000  0.29945100  1
  Mo  Mo10  1  4.05077000  5.77710000  2.01302000  1
  Mo  Mo11  1  8.22428000  7.51465000  3.76400000  1
  Mo  Mo12  1  6.12727000  2.31520000  0.28421300  1
  Mo  Mo13  1  6.14670000  0.59304300  2.02753000  1
  Mo  Mo14  1  6.12692000  5.78932000  0.28125100  1
  Mo  Mo15  1  6.13303000  4.05346000  2.04107000  1
