# generated using pymatgen
data_Mo
_symmetry_space_group_name_H-M   'P 1'
_cell_length_a   7.98694240
_cell_length_b   7.02943450
_cell_length_c   3.51434827
_cell_angle_alpha   90.00000000
_cell_angle_beta   90.00000000
_cell_angle_gamma   90.00000000
_symmetry_Int_Tables_number   1
_chemical_formula_structural   Mo
_chemical_formula_sum   Mo16
_cell_volume   197.30847436
_cell_formula_units_Z   16
loop_
 _symmetry_equiv_pos_site_id
 _symmetry_equiv_pos_as_xyz
  1  'x, y, z'
loop_
 _atom_site_type_symbol
 _atom_site_label
 _atom_site_symmetry_multiplicity
 _atom_site_fract_x
 _atom_site_fract_y
 _atom_site_fract_z
 _atom_site_occupancy
  Mo  Mo0  1  0.04700000  7.57182000  3.77698000  1
  Mo  Mo1  1  2.04960000  2.28899000  0.26329400  1
  Mo  Mo2  1  2.03156000  0.52947300  2.03083000  1
  Mo  Mo3  1  0.05056060  2.30042000  2.01969000  1
  Mo  Mo4  1  4.04568000  7.56931000  3.78098000  1
  Mo  Mo5  1  6.04876000  2.28567000  0.26901500  1
  Mo  Mo6  1  6.03618000  0.53182400  2.03193000  1
  Mo  Mo7  1  4.04448000  2.29170000  2.02799000  1
  Mo  Mo8  1  8.04792000  4.05264000  0.25316800  1
  Mo  Mo9  1  2.05456000  5.79903000  0.27671300  1
  Mo  Mo10  1  2.05816000  4.05044000  2.01742000  1
  Mo  Mo11  1  0.05884530  5.80779000  2.03443000  1
  Mo  Mo12  1  4.06600000  4.05648000  0.25728000  1
  Mo  Mo13  1  6.06268000  5.80333000  3.79198000  1
  Mo  Mo14  1  6.05344000  4.04479000  2.01809000  1
  Mo  Mo15  1  4.05761000  5.81629000  2.03586000  1
