# generated using pymatgen
data_Mo
_symmetry_space_group_name_H-M   'P 1'
_cell_length_a   7.49494514
_cell_length_b   7.19262564
_cell_length_c   3.59622025
_cell_angle_alpha   90.00000000
_cell_angle_beta   90.00000000
_cell_angle_gamma   90.00000000
_symmetry_Int_Tables_number   1
_chemical_formula_structural   Mo
_chemical_formula_sum   Mo16
_cell_volume   193.86624476
_cell_formula_units_Z   16
loop_
 _symmetry_equiv_pos_site_id
 _symmetry_equiv_pos_as_xyz
  1  'x, y, z'
loop_
 _atom_site_type_symbol
 _atom_site_label
 _atom_site_symmetry_multiplicity
 _atom_site_fract_x
 _atom_site_fract_y
 _atom_site_fract_z
 _atom_site_occupancy
  Mo  Mo0  1  0.28871800  7.64540000  3.82726000  1
  Mo  Mo1  1  2.17291000  2.25038000  0.22771900  1
  Mo  Mo2  1  2.16763000  0.45521600  2.01637000  1
  Mo  Mo3  1  0.29878400  2.25858000  2.02272000  1
  Mo  Mo4  1  4.04122000  7.64646000  3.83063000  1
  Mo  Mo5  1  5.92452000  2.25457000  0.22982400  1
  Mo  Mo6  1  5.91543000  0.45078800  2.01717000  1
  Mo  Mo7  1  4.04527000  2.25201000  2.02910000  1
  Mo  Mo8  1  7.80709000  4.05169000  0.21568700  1
  Mo  Mo9  1  2.17992000  5.84148000  0.23191300  1
  Mo  Mo10  1  2.17306000  4.05347000  2.01890000  1
  Mo  Mo11  1  0.30484200  5.84362000  2.02181000  1
  Mo  Mo12  1  4.06894000  4.04874000  0.21901700  1
  Mo  Mo13  1  5.93859000  5.84977000  3.83686000  1
  Mo  Mo14  1  5.92560000  4.04296000  2.02063000  1
  Mo  Mo15  1  4.05255000  5.85488000  2.03818000  1
