# generated using pymatgen
data_Mo
_symmetry_space_group_name_H-M   'P 1'
_cell_length_a   8.16743844
_cell_length_b   6.97644836
_cell_length_c   3.48662925
_cell_angle_alpha   90.00000000
_cell_angle_beta   90.00000000
_cell_angle_gamma   90.00000000
_symmetry_Int_Tables_number   1
_chemical_formula_structural   Mo
_chemical_formula_sum   Mo16
_cell_volume   198.66713208
_cell_formula_units_Z   16
loop_
 _symmetry_equiv_pos_site_id
 _symmetry_equiv_pos_as_xyz
  1  'x, y, z'
loop_
 _atom_site_type_symbol
 _atom_site_label
 _atom_site_symmetry_multiplicity
 _atom_site_fract_x
 _atom_site_fract_y
 _atom_site_fract_z
 _atom_site_occupancy
  Mo  Mo0  1  -0.04222930  7.53871000  3.76199000  1
  Mo  Mo1  1  2.00022000  2.30369000  0.28088000  1
  Mo  Mo2  1  2.01474000  0.55492700  2.02855000  1
  Mo  Mo3  1  -0.04430310  2.30139000  2.01342000  1
  Mo  Mo4  1  4.04205000  7.54967000  3.77293000  1
  Mo  Mo5  1  6.09075000  2.30360000  0.28428800  1
  Mo  Mo6  1  6.09701000  0.55601200  2.03475000  1
  Mo  Mo7  1  4.05721000  2.30593000  2.02241000  1
  Mo  Mo8  1  8.13938000  4.05739000  0.29410600  1
  Mo  Mo9  1  2.00640000  5.79794000  0.27048900  1
  Mo  Mo10  1  2.00207000  4.04275000  2.03125000  1
  Mo  Mo11  1  -0.03811580  5.80150000  2.00722000  1
  Mo  Mo12  1  4.04983000  4.04891000  0.30491300  1
  Mo  Mo13  1  6.09202000  5.79048000  3.75752000  1
  Mo  Mo14  1  6.11118000  4.04864000  2.03714000  1
  Mo  Mo15  1  4.05437000  5.79844000  2.01150000  1
