# generated using pymatgen
data_Mo
_symmetry_space_group_name_H-M   'P 1'
_cell_length_a   7.41488677
_cell_length_b   7.22212154
_cell_length_c   3.61170459
_cell_angle_alpha   90.00000000
_cell_angle_beta   90.00000000
_cell_angle_gamma   90.00000000
_symmetry_Int_Tables_number   1
_chemical_formula_structural   Mo
_chemical_formula_sum   Mo16
_cell_volume   193.41116332
_cell_formula_units_Z   16
loop_
 _symmetry_equiv_pos_site_id
 _symmetry_equiv_pos_as_xyz
  1  'x, y, z'
loop_
 _atom_site_type_symbol
 _atom_site_label
 _atom_site_symmetry_multiplicity
 _atom_site_fract_x
 _atom_site_fract_y
 _atom_site_fract_z
 _atom_site_occupancy
  Mo  Mo0  1  0.34102400  7.66037000  3.82472000  1
  Mo  Mo1  1  2.20369000  2.24919000  0.21873600  1
  Mo  Mo2  1  2.17846000  0.43694700  2.02376000  1
  Mo  Mo3  1  0.33464500  2.24170000  2.02017000  1
  Mo  Mo4  1  4.03874000  7.65663000  3.83744000  1
  Mo  Mo5  1  5.89925000  2.24055000  0.22105300  1
  Mo  Mo6  1  5.89019000  0.44412200  2.02956000  1
  Mo  Mo7  1  4.03928000  2.23948000  2.02562000  1
  Mo  Mo8  1  7.76587000  4.04051000  0.20864800  1
  Mo  Mo9  1  2.20904000  5.86176000  0.22925600  1
  Mo  Mo10  1  2.21434000  4.05113000  2.00293000  1
  Mo  Mo11  1  0.34434400  5.85705000  2.03387000  1
  Mo  Mo12  1  4.05174000  4.04978000  0.22142300  1
  Mo  Mo13  1  5.91094000  5.85676000  3.84319000  1
  Mo  Mo14  1  5.90975000  4.05565000  2.00879000  1
  Mo  Mo15  1  4.05380000  5.85837000  2.03915000  1
