# generated using pymatgen
data_Mo
_symmetry_space_group_name_H-M   'P 1'
_cell_length_a   7.71619834
_cell_length_b   7.11594158
_cell_length_c   3.55692816
_cell_angle_alpha   90.00000000
_cell_angle_beta   90.00000000
_cell_angle_gamma   90.00000000
_symmetry_Int_Tables_number   1
_chemical_formula_structural   Mo
_chemical_formula_sum   Mo16
_cell_volume   195.30387047
_cell_formula_units_Z   16
loop_
 _symmetry_equiv_pos_site_id
 _symmetry_equiv_pos_as_xyz
  1  'x, y, z'
loop_
 _atom_site_type_symbol
 _atom_site_label
 _atom_site_symmetry_multiplicity
 _atom_site_fract_x
 _atom_site_fract_y
 _atom_site_fract_z
 _atom_site_occupancy
  Mo  Mo0  1  0.17601200  7.60241000  3.81286000  1
  Mo  Mo1  1  2.10569000  2.27806000  0.23201200  1
  Mo  Mo2  1  2.11722000  0.50034200  2.02993000  1
  Mo  Mo3  1  0.18730900  2.25688000  2.01552000  1
  Mo  Mo4  1  4.05051000  7.60819000  3.81912000  1
  Mo  Mo5  1  5.98279000  2.28618000  0.23454900  1
  Mo  Mo6  1  5.97436000  0.49140900  2.03299000  1
  Mo  Mo7  1  4.04859000  2.27093000  2.02353000  1
  Mo  Mo8  1  7.91765000  4.04859000  0.24414900  1
  Mo  Mo9  1  2.12189000  5.83126000  0.23477200  1
  Mo  Mo10  1  2.11647000  4.05639000  2.03407000  1
  Mo  Mo11  1  0.19640900  5.82466000  2.01415000  1
  Mo  Mo12  1  4.06733000  4.04231000  0.25046800  1
  Mo  Mo13  1  5.98419000  5.83046000  3.79857000  1
  Mo  Mo14  1  5.98693000  4.05643000  2.03766000  1
  Mo  Mo15  1  4.05045000  5.81551000  2.02872000  1
