# generated using pymatgen
data_Mo
_symmetry_space_group_name_H-M   'P 1'
_cell_length_a   8.01605445
_cell_length_b   7.01998961
_cell_length_c   3.51019049
_cell_angle_alpha   90.00000000
_cell_angle_beta   90.00000000
_cell_angle_gamma   90.00000000
_symmetry_Int_Tables_number   1
_chemical_formula_structural   Mo
_chemical_formula_sum   Mo16
_cell_volume   197.52761166
_cell_formula_units_Z   16
loop_
 _symmetry_equiv_pos_site_id
 _symmetry_equiv_pos_as_xyz
  1  'x, y, z'
loop_
 _atom_site_type_symbol
 _atom_site_label
 _atom_site_symmetry_multiplicity
 _atom_site_fract_x
 _atom_site_fract_y
 _atom_site_fract_z
 _atom_site_occupancy
  Mo  Mo0  1  0.03390940  7.55474000  3.77979000  1
  Mo  Mo1  1  2.04094000  2.30113000  0.26314000  1
  Mo  Mo2  1  2.04896000  0.53561400  2.03080000  1
  Mo  Mo3  1  0.04166390  2.29320000  2.00926000  1
  Mo  Mo4  1  4.05515000  7.56555000  3.79139000  1
  Mo  Mo5  1  6.06219000  2.29800000  0.26880000  1
  Mo  Mo6  1  6.04935000  0.53927500  2.03710000  1
  Mo  Mo7  1  4.05189000  2.29570000  2.02028000  1
  Mo  Mo8  1  8.06004000  4.05300000  0.27028800  1
  Mo  Mo9  1  2.04501000  5.81158000  0.27139800  1
  Mo  Mo10  1  2.02994000  4.04572000  2.01917000  1
  Mo  Mo11  1  0.04323690  5.80327000  2.02212000  1
  Mo  Mo12  1  4.06064000  4.04650000  0.28198300  1
  Mo  Mo13  1  6.06105000  5.80286000  3.77884000  1
  Mo  Mo14  1  6.05309000  4.05294000  2.02460000  1
  Mo  Mo15  1  4.04689000  5.80092000  2.02086000  1
