# generated using pymatgen
data_Mo
_symmetry_space_group_name_H-M   'P 1'
_cell_length_a   8.39596941
_cell_length_b   6.90253502
_cell_length_c   3.45491910
_cell_angle_alpha   90.00000000
_cell_angle_beta   90.00000000
_cell_angle_gamma   90.00000000
_symmetry_Int_Tables_number   1
_chemical_formula_structural   Mo
_chemical_formula_sum   Mo16
_cell_volume   200.22456029
_cell_formula_units_Z   16
loop_
 _symmetry_equiv_pos_site_id
 _symmetry_equiv_pos_as_xyz
  1  'x, y, z'
loop_
 _atom_site_type_symbol
 _atom_site_label
 _atom_site_symmetry_multiplicity
 _atom_site_fract_x
 _atom_site_fract_y
 _atom_site_fract_z
 _atom_site_occupancy
  Mo  Mo0  1  1.95632000  2.33628000  0.29061200  1
  Mo  Mo1  1  1.93681000  0.59524100  2.02156000  1
  Mo  Mo2  1  -0.14757900  2.32848000  2.02056000  1
  Mo  Mo3  1  4.04526000  7.50029000  3.76699000  1
  Mo  Mo4  1  4.03962000  2.31499000  2.02597000  1
  Mo  Mo5  1  -0.14621000  4.04528000  3.74626000  1
  Mo  Mo6  1  1.95546000  5.77854000  0.29436900  1
  Mo  Mo7  1  1.96327000  4.05221000  2.02666000  1
  Mo  Mo8  1  -0.13885300  5.76172000  2.02186000  1
  Mo  Mo9  1  4.05650000  4.05120000  0.30344800  1
  Mo  Mo10  1  4.05356000  5.77405000  2.02592000  1
  Mo  Mo11  1  8.24429000  7.50063000  3.75487000  1
  Mo  Mo12  1  6.14494000  2.32669000  0.29261800  1
  Mo  Mo13  1  6.12873000  0.60537900  2.02652000  1
  Mo  Mo14  1  6.15965000  5.77602000  0.29536100  1
  Mo  Mo15  1  6.15227000  4.05300000  2.03151000  1
