# generated using pymatgen
data_Mo
_symmetry_space_group_name_H-M   'P 1'
_cell_length_a   8.20382874
_cell_length_b   6.96547645
_cell_length_c   3.48120284
_cell_angle_alpha   90.00000000
_cell_angle_beta   90.00000000
_cell_angle_gamma   90.00000000
_symmetry_Int_Tables_number   1
_chemical_formula_structural   Mo
_chemical_formula_sum   Mo16
_cell_volume   198.92837883
_cell_formula_units_Z   16
loop_
 _symmetry_equiv_pos_site_id
 _symmetry_equiv_pos_as_xyz
  1  'x, y, z'
loop_
 _atom_site_type_symbol
 _atom_site_label
 _atom_site_symmetry_multiplicity
 _atom_site_fract_x
 _atom_site_fract_y
 _atom_site_fract_z
 _atom_site_occupancy
  Mo  Mo0  1  2.00184000  2.31533000  0.29362700  1
  Mo  Mo1  1  2.00272000  0.57456200  2.00660000  1
  Mo  Mo2  1  -0.04930580  2.29681000  2.03605000  1
  Mo  Mo3  1  4.04529000  7.52901000  3.76115000  1
  Mo  Mo4  1  4.04359000  2.31037000  2.04228000  1
  Mo  Mo5  1  -0.04847290  4.04315000  3.75895000  1
  Mo  Mo6  1  2.01335000  5.79701000  0.28526100  1
  Mo  Mo7  1  2.00092000  4.05444000  2.01810000  1
  Mo  Mo8  1  -0.04660970  5.79426000  2.02688000  1
  Mo  Mo9  1  4.05114000  4.04169000  0.28862600  1
  Mo  Mo10  1  4.04244000  5.77979000  2.03134000  1
  Mo  Mo11  1  8.14308000  7.52223000  3.75078000  1
  Mo  Mo12  1  6.10817000  2.31531000  0.29767900  1
  Mo  Mo13  1  6.09226000  0.57377100  2.01113000  1
  Mo  Mo14  1  6.10214000  5.78916000  0.28787500  1
  Mo  Mo15  1  6.09363000  4.06309000  2.02247000  1
