# generated using pymatgen
data_Mo
_symmetry_space_group_name_H-M   'P 1'
_cell_length_a   8.10775793
_cell_length_b   6.99341530
_cell_length_c   3.49596715
_cell_angle_alpha   90.00000000
_cell_angle_beta   90.00000000
_cell_angle_gamma   90.00000000
_symmetry_Int_Tables_number   1
_chemical_formula_structural   Mo
_chemical_formula_sum   Mo16
_cell_volume   198.22454776
_cell_formula_units_Z   16
loop_
 _symmetry_equiv_pos_site_id
 _symmetry_equiv_pos_as_xyz
  1  'x, y, z'
loop_
 _atom_site_type_symbol
 _atom_site_label
 _atom_site_symmetry_multiplicity
 _atom_site_fract_x
 _atom_site_fract_y
 _atom_site_fract_z
 _atom_site_occupancy
  Mo  Mo0  1  0.00251988  7.55482000  3.76685000  1
  Mo  Mo1  1  2.02133000  2.29792000  0.29367500  1
  Mo  Mo2  1  2.01825000  0.54979700  2.01221000  1
  Mo  Mo3  1  -0.00219819  2.31138000  2.04165000  1
  Mo  Mo4  1  4.04647000  7.54657000  3.75833000  1
  Mo  Mo5  1  6.06273000  2.29689000  0.28692500  1
  Mo  Mo6  1  6.07500000  0.55010100  2.00833000  1
  Mo  Mo7  1  4.04661000  2.30258000  2.03133000  1
  Mo  Mo8  1  8.10772000  4.04993000  0.27635400  1
  Mo  Mo9  1  2.01856000  5.78717000  0.28101700  1
  Mo  Mo10  1  2.03801000  4.05191000  2.02515000  1
  Mo  Mo11  1  -0.00057762  5.79910000  2.02545000  1
  Mo  Mo12  1  4.05144000  4.05333000  0.26755300  1
  Mo  Mo13  1  6.07034000  5.79478000  3.77875000  1
  Mo  Mo14  1  6.08082000  4.04459000  2.02248000  1
  Mo  Mo15  1  4.05521000  5.80914000  2.02798000  1
