# generated using pymatgen
data_Mo
_symmetry_space_group_name_H-M   'P 1'
_cell_length_a   8.03497733
_cell_length_b   7.01540965
_cell_length_c   3.50687599
_cell_angle_alpha   90.00000000
_cell_angle_beta   90.00000000
_cell_angle_gamma   90.00000000
_symmetry_Int_Tables_number   1
_chemical_formula_structural   Mo
_chemical_formula_sum   Mo16
_cell_volume   197.67789158
_cell_formula_units_Z   16
loop_
 _symmetry_equiv_pos_site_id
 _symmetry_equiv_pos_as_xyz
  1  'x, y, z'
loop_
 _atom_site_type_symbol
 _atom_site_label
 _atom_site_symmetry_multiplicity
 _atom_site_fract_x
 _atom_site_fract_y
 _atom_site_fract_z
 _atom_site_occupancy
  Mo  Mo0  1  0.03298640  7.56245000  3.76500000  1
  Mo  Mo1  1  2.04515000  2.28969000  0.29125700  1
  Mo  Mo2  1  2.03814000  0.53210700  2.01873000  1
  Mo  Mo3  1  0.03221020  2.31114000  2.03912000  1
  Mo  Mo4  1  4.04271000  7.55972000  3.76070000  1
  Mo  Mo5  1  6.05368000  2.28070000  0.28398800  1
  Mo  Mo6  1  6.06254000  0.54266600  2.01644000  1
  Mo  Mo7  1  4.05772000  2.29507000  2.02442000  1
  Mo  Mo8  1  8.07331000  4.05387000  0.27621200  1
  Mo  Mo9  1  2.03834000  5.80233000  0.27866900  1
  Mo  Mo10  1  2.02996000  4.04175000  2.01898000  1
  Mo  Mo11  1  0.02952720  5.80832000  2.02923000  1
  Mo  Mo12  1  4.05366000  4.05769000  0.27143400  1
  Mo  Mo13  1  6.06441000  5.79990000  3.78206000  1
  Mo  Mo14  1  6.05341000  4.04351000  2.01702000  1
  Mo  Mo15  1  4.05726000  5.81909000  2.01985000  1
