# generated using pymatgen
data_Mo
_symmetry_space_group_name_H-M   'P 1'
_cell_length_a   8.63323408
_cell_length_b   6.84552789
_cell_length_c   3.41803360
_cell_angle_alpha   90.00000000
_cell_angle_beta   90.00000000
_cell_angle_gamma   90.00000000
_symmetry_Int_Tables_number   1
_chemical_formula_structural   Mo
_chemical_formula_sum   Mo16
_cell_volume   202.00252043
_cell_formula_units_Z   16
loop_
 _symmetry_equiv_pos_site_id
 _symmetry_equiv_pos_as_xyz
  1  'x, y, z'
loop_
 _atom_site_type_symbol
 _atom_site_label
 _atom_site_symmetry_multiplicity
 _atom_site_fract_x
 _atom_site_fract_y
 _atom_site_fract_z
 _atom_site_occupancy
  Mo  Mo0  1  1.88343000  2.34346000  0.31781200  1
  Mo  Mo1  1  1.89358000  0.63591200  2.01116000  1
  Mo  Mo2  1  -0.26859500  2.33061000  2.03133000  1
  Mo  Mo3  1  4.03006000  7.46775000  3.73150000  1
  Mo  Mo4  1  4.05116000  2.33598000  2.03940000  1
  Mo  Mo5  1  -0.24165100  4.04374000  3.72475000  1
  Mo  Mo6  1  1.89816000  5.76006000  0.32282000  1
  Mo  Mo7  1  1.90060000  4.06085000  2.02006000  1
  Mo  Mo8  1  -0.26272600  5.75543000  2.03609000  1
  Mo  Mo9  1  4.05891000  4.04216000  0.30708600  1
  Mo  Mo10  1  4.05634000  5.75378000  2.03087000  1
  Mo  Mo11  1  8.36067000  7.46671000  3.73119000  1
  Mo  Mo12  1  6.19067000  2.34431000  0.32265900  1
  Mo  Mo13  1  6.20564000  0.63621400  2.01439000  1
  Mo  Mo14  1  6.19602000  5.76125000  0.31920100  1
  Mo  Mo15  1  6.21449000  4.06178000  2.02164000  1
