# generated using pymatgen
data_Mo
_symmetry_space_group_name_H-M   'P 1'
_cell_length_a   8.72202569
_cell_length_b   6.81269032
_cell_length_c   3.41236472
_cell_angle_alpha   90.00000000
_cell_angle_beta   90.00000000
_cell_angle_gamma   90.00000000
_symmetry_Int_Tables_number   1
_chemical_formula_structural   Mo
_chemical_formula_sum   Mo16
_cell_volume   202.76428138
_cell_formula_units_Z   16
loop_
 _symmetry_equiv_pos_site_id
 _symmetry_equiv_pos_as_xyz
  1  'x, y, z'
loop_
 _atom_site_type_symbol
 _atom_site_label
 _atom_site_symmetry_multiplicity
 _atom_site_fract_x
 _atom_site_fract_y
 _atom_site_fract_z
 _atom_site_occupancy
  Mo  Mo0  1  1.87041000  2.34724000  0.32890500  1
  Mo  Mo1  1  1.87593000  0.64314000  2.01758000  1
  Mo  Mo2  1  -0.30644500  2.35813000  2.03107000  1
  Mo  Mo3  1  4.03082000  7.45432000  3.72110000  1
  Mo  Mo4  1  4.04022000  2.34697000  2.02788000  1
  Mo  Mo5  1  -0.30350700  4.04773000  3.72985000  1
  Mo  Mo6  1  1.86595000  5.74396000  0.32705100  1
  Mo  Mo7  1  1.89191000  4.05459000  2.01422000  1
  Mo  Mo8  1  -0.30558100  5.74858000  2.02919000  1
  Mo  Mo9  1  4.05906000  4.04558000  0.31042700  1
  Mo  Mo10  1  4.04857000  5.76213000  2.03274000  1
  Mo  Mo11  1  8.39869000  7.45711000  3.72832000  1
  Mo  Mo12  1  6.21332000  2.35063000  0.32775000  1
  Mo  Mo13  1  6.23493000  0.64161900  2.01722000  1
  Mo  Mo14  1  6.22919000  5.75232000  0.33028800  1
  Mo  Mo15  1  6.23452000  4.04596000  2.01405000  1
