# generated using pymatgen
data_Mo
_symmetry_space_group_name_H-M   'P 1'
_cell_length_a   8.56918719
_cell_length_b   6.86627042
_cell_length_c   3.42425418
_cell_angle_alpha   90.00000000
_cell_angle_beta   90.00000000
_cell_angle_gamma   90.00000000
_symmetry_Int_Tables_number   1
_chemical_formula_structural   Mo
_chemical_formula_sum   Mo16
_cell_volume   201.47748840
_cell_formula_units_Z   16
loop_
 _symmetry_equiv_pos_site_id
 _symmetry_equiv_pos_as_xyz
  1  'x, y, z'
loop_
 _atom_site_type_symbol
 _atom_site_label
 _atom_site_symmetry_multiplicity
 _atom_site_fract_x
 _atom_site_fract_y
 _atom_site_fract_z
 _atom_site_occupancy
  Mo  Mo0  1  1.90889000  2.33676000  0.32442600  1
  Mo  Mo1  1  1.91008000  0.62376300  2.01694000  1
  Mo  Mo2  1  -0.23146800  2.32901000  2.04457000  1
  Mo  Mo3  1  4.05698000  7.47368000  3.72046000  1
  Mo  Mo4  1  4.05929000  2.32132000  2.03535000  1
  Mo  Mo5  1  -0.24314400  4.04184000  3.73967000  1
  Mo  Mo6  1  1.89488000  5.77234000  0.30931100  1
  Mo  Mo7  1  1.90396000  4.06081000  2.01783000  1
  Mo  Mo8  1  -0.24242400  5.75961000  2.03033000  1
  Mo  Mo9  1  4.03821000  4.04463000  0.31334500  1
  Mo  Mo10  1  4.05647000  5.76595000  2.03414000  1
  Mo  Mo11  1  8.35092000  7.48015000  3.72200000  1
  Mo  Mo12  1  6.18764000  2.33179000  0.31842000  1
  Mo  Mo13  1  6.20884000  0.62714400  2.01741000  1
  Mo  Mo14  1  6.18373000  5.77303000  0.31227300  1
  Mo  Mo15  1  6.18795000  4.05816000  2.01926000  1
