# generated using pymatgen
data_Mo
_symmetry_space_group_name_H-M   'P 1'
_cell_length_a   8.35957912
_cell_length_b   6.91599131
_cell_length_c   3.45900464
_cell_angle_alpha   90.00000000
_cell_angle_beta   90.00000000
_cell_angle_gamma   90.00000000
_symmetry_Int_Tables_number   1
_chemical_formula_structural   Mo
_chemical_formula_sum   Mo16
_cell_volume   199.98158018
_cell_formula_units_Z   16
loop_
 _symmetry_equiv_pos_site_id
 _symmetry_equiv_pos_as_xyz
  1  'x, y, z'
loop_
 _atom_site_type_symbol
 _atom_site_label
 _atom_site_symmetry_multiplicity
 _atom_site_fract_x
 _atom_site_fract_y
 _atom_site_fract_z
 _atom_site_occupancy
  Mo  Mo0  1  1.94842000  2.32408000  0.29935000  1
  Mo  Mo1  1  1.94882000  0.59623800  2.01848000  1
  Mo  Mo2  1  -0.13378900  2.31815000  2.02474000  1
  Mo  Mo3  1  4.03451000  7.49791000  3.75695000  1
  Mo  Mo4  1  4.05236000  2.31810000  2.02951000  1
  Mo  Mo5  1  -0.11539400  4.04278000  3.75957000  1
  Mo  Mo6  1  1.95855000  5.78503000  0.28750300  1
  Mo  Mo7  1  1.96932000  4.05502000  2.02654000  1
  Mo  Mo8  1  -0.13182200  5.77344000  2.01217000  1
  Mo  Mo9  1  4.06221000  4.04976000  0.30874500  1
  Mo  Mo10  1  4.06308000  5.77623000  2.02381000  1
  Mo  Mo11  1  8.22206000  7.50517000  3.74877000  1
  Mo  Mo12  1  6.12880000  2.31972000  0.29901900  1
  Mo  Mo13  1  6.14911000  0.59876200  2.02249000  1
  Mo  Mo14  1  6.13943000  5.78740000  0.29208300  1
  Mo  Mo15  1  6.14476000  4.05221000  2.03126000  1
