# generated using pymatgen
data_Mo
_symmetry_space_group_name_H-M   'P 1'
_cell_length_a   7.64487320
_cell_length_b   7.13726270
_cell_length_c   3.57036233
_cell_angle_alpha   90.00000000
_cell_angle_beta   90.00000000
_cell_angle_gamma   90.00000000
_symmetry_Int_Tables_number   1
_chemical_formula_structural   Mo
_chemical_formula_sum   Mo16
_cell_volume   194.81135202
_cell_formula_units_Z   16
loop_
 _symmetry_equiv_pos_site_id
 _symmetry_equiv_pos_as_xyz
  1  'x, y, z'
loop_
 _atom_site_type_symbol
 _atom_site_label
 _atom_site_symmetry_multiplicity
 _atom_site_fract_x
 _atom_site_fract_y
 _atom_site_fract_z
 _atom_site_occupancy
  Mo  Mo0  1  0.22262700  7.61686000  3.80119000  1
  Mo  Mo1  1  2.13389000  2.27244000  0.24089600  1
  Mo  Mo2  1  2.12822000  0.48368800  2.01565000  1
  Mo  Mo3  1  0.22966700  2.26093000  2.02456000  1
  Mo  Mo4  1  4.03260000  7.60893000  3.81184000  1
  Mo  Mo5  1  5.94476000  2.26292000  0.24719100  1
  Mo  Mo6  1  5.95889000  0.49027900  2.02201000  1
  Mo  Mo7  1  4.04438000  2.25707000  2.03709000  1
  Mo  Mo8  1  7.88593000  4.03640000  0.23205200  1
  Mo  Mo9  1  2.14218000  5.83924000  0.24557700  1
  Mo  Mo10  1  2.15992000  4.05768000  2.01245000  1
  Mo  Mo11  1  0.23402900  5.83244000  2.03284000  1
  Mo  Mo12  1  4.05987000  4.04703000  0.24265800  1
  Mo  Mo13  1  5.95854000  5.83943000  3.81361000  1
  Mo  Mo14  1  5.96044000  4.05789000  2.01762000  1
  Mo  Mo15  1  4.05919000  5.83678000  2.03241000  1
