# generated using pymatgen
data_Mo
_symmetry_space_group_name_H-M   'P 1'
_cell_length_a   8.01314353
_cell_length_b   7.02022326
_cell_length_c   3.51090980
_cell_angle_alpha   90.00000000
_cell_angle_beta   90.00000000
_cell_angle_gamma   90.00000000
_symmetry_Int_Tables_number   1
_chemical_formula_structural   Mo
_chemical_formula_sum   Mo16
_cell_volume   197.50291831
_cell_formula_units_Z   16
loop_
 _symmetry_equiv_pos_site_id
 _symmetry_equiv_pos_as_xyz
  1  'x, y, z'
loop_
 _atom_site_type_symbol
 _atom_site_label
 _atom_site_symmetry_multiplicity
 _atom_site_fract_x
 _atom_site_fract_y
 _atom_site_fract_z
 _atom_site_occupancy
  Mo  Mo0  1  0.03877930  7.55680000  3.76941000  1
  Mo  Mo1  1  2.04842000  2.29130000  0.27360500  1
  Mo  Mo2  1  2.05430000  0.53362700  2.02548000  1
  Mo  Mo3  1  0.04084310  2.29770000  2.02021000  1
  Mo  Mo4  1  4.05556000  7.56937000  3.77880000  1
  Mo  Mo5  1  6.06685000  2.28952000  0.27708100  1
  Mo  Mo6  1  6.05368000  0.53707200  2.02961000  1
  Mo  Mo7  1  4.05644000  2.30050000  2.02590000  1
  Mo  Mo8  1  8.05405000  4.05784000  0.26787600  1
  Mo  Mo9  1  2.04761000  5.80889000  0.27388800  1
  Mo  Mo10  1  2.02295000  4.04153000  2.01721000  1
  Mo  Mo11  1  0.03905260  5.81032000  2.02485000  1
  Mo  Mo12  1  4.05095000  4.05050000  0.27732600  1
  Mo  Mo13  1  6.06101000  5.79907000  3.78329000  1
  Mo  Mo14  1  6.05109000  4.04981000  2.02118000  1
  Mo  Mo15  1  4.04526000  5.80614000  2.02339000  1
