# generated using pymatgen
data_Mo
_symmetry_space_group_name_H-M   'P 1'
_cell_length_a   7.68999721
_cell_length_b   7.12435460
_cell_length_c   3.56158137
_cell_angle_alpha   90.00000000
_cell_angle_beta   90.00000000
_cell_angle_gamma   90.00000000
_symmetry_Int_Tables_number   1
_chemical_formula_structural   Mo
_chemical_formula_sum   Mo16
_cell_volume   195.12574810
_cell_formula_units_Z   16
loop_
 _symmetry_equiv_pos_site_id
 _symmetry_equiv_pos_as_xyz
  1  'x, y, z'
loop_
 _atom_site_type_symbol
 _atom_site_label
 _atom_site_symmetry_multiplicity
 _atom_site_fract_x
 _atom_site_fract_y
 _atom_site_fract_z
 _atom_site_occupancy
  Mo  Mo0  1  0.19603700  7.61226000  3.80890000  1
  Mo  Mo1  1  2.12183000  2.28332000  0.24476300  1
  Mo  Mo2  1  2.11795000  0.48811800  2.02407000  1
  Mo  Mo3  1  0.20115200  2.26772000  2.02450000  1
  Mo  Mo4  1  4.04434000  7.60294000  3.80972000  1
  Mo  Mo5  1  5.97337000  2.27513000  0.24165000  1
  Mo  Mo6  1  5.98633000  0.49392900  2.02531000  1
  Mo  Mo7  1  4.04515000  2.26335000  2.02015000  1
  Mo  Mo8  1  7.89626000  4.04174000  0.26011300  1
  Mo  Mo9  1  2.12486000  5.83447000  0.23130000  1
  Mo  Mo10  1  2.13474000  4.05275000  2.03584000  1
  Mo  Mo11  1  0.19849300  5.82122000  2.01103000  1
  Mo  Mo12  1  4.06267000  4.05069000  0.26104500  1
  Mo  Mo13  1  5.98113000  5.83572000  3.79226000  1
  Mo  Mo14  1  5.97273000  4.05251000  2.03735000  1
  Mo  Mo15  1  4.05295000  5.82411000  2.01041000  1
