# generated using pymatgen
data_Mo
_symmetry_space_group_name_H-M   'P 1'
_cell_length_a   8.68417993
_cell_length_b   6.84043157
_cell_length_c   3.40738940
_cell_angle_alpha   90.00000000
_cell_angle_beta   90.00000000
_cell_angle_gamma   90.00000000
_symmetry_Int_Tables_number   1
_chemical_formula_structural   Mo
_chemical_formula_sum   Mo16
_cell_volume   202.41098780
_cell_formula_units_Z   16
loop_
 _symmetry_equiv_pos_site_id
 _symmetry_equiv_pos_as_xyz
  1  'x, y, z'
loop_
 _atom_site_type_symbol
 _atom_site_label
 _atom_site_symmetry_multiplicity
 _atom_site_fract_x
 _atom_site_fract_y
 _atom_site_fract_z
 _atom_site_occupancy
  Mo  Mo0  1  1.87174000  2.33575000  0.32258000  1
  Mo  Mo1  1  1.86531000  0.62280200  2.01949000  1
  Mo  Mo2  1  -0.28757300  2.34433000  2.01968000  1
  Mo  Mo3  1  4.04760000  7.47021000  3.72862000  1
  Mo  Mo4  1  4.04368000  2.34787000  2.03444000  1
  Mo  Mo5  1  -0.28863800  4.05121000  3.72993000  1
  Mo  Mo6  1  1.87271000  5.75796000  0.31705400  1
  Mo  Mo7  1  1.89707000  4.04339000  2.03349000  1
  Mo  Mo8  1  -0.28492100  5.76573000  2.01441000  1
  Mo  Mo9  1  4.06306000  4.06090000  0.32816500  1
  Mo  Mo10  1  4.05637000  5.76429000  2.01757000  1
  Mo  Mo11  1  8.38752000  7.47711000  3.72250000  1
  Mo  Mo12  1  6.21018000  2.33573000  0.33141200  1
  Mo  Mo13  1  6.21795000  0.62109400  2.02087000  1
  Mo  Mo14  1  6.22329000  5.76202000  0.31799300  1
  Mo  Mo15  1  6.22048000  4.03961000  2.03441000  1
