# generated using pymatgen
data_Mo
_symmetry_space_group_name_H-M   'P 1'
_cell_length_a   7.77296698
_cell_length_b   7.09654379
_cell_length_c   3.54786754
_cell_angle_alpha   90.00000000
_cell_angle_beta   90.00000000
_cell_angle_gamma   90.00000000
_symmetry_Int_Tables_number   1
_chemical_formula_structural   Mo
_chemical_formula_sum   Mo16
_cell_volume   195.70463271
_cell_formula_units_Z   16
loop_
 _symmetry_equiv_pos_site_id
 _symmetry_equiv_pos_as_xyz
  1  'x, y, z'
loop_
 _atom_site_type_symbol
 _atom_site_label
 _atom_site_symmetry_multiplicity
 _atom_site_fract_x
 _atom_site_fract_y
 _atom_site_fract_z
 _atom_site_occupancy
  Mo  Mo0  1  0.16830200  7.59541000  3.79713000  1
  Mo  Mo1  1  2.10073000  2.28551000  0.25056600  1
  Mo  Mo2  1  2.10920000  0.50155700  2.03142000  1
  Mo  Mo3  1  0.16852900  2.27812000  2.03277000  1
  Mo  Mo4  1  4.06558000  7.59559000  3.79202000  1
  Mo  Mo5  1  5.99761000  2.27810000  0.24569100  1
  Mo  Mo6  1  6.00216000  0.50958800  2.02883000  1
  Mo  Mo7  1  4.05210000  2.27023000  2.02142000  1
  Mo  Mo8  1  7.92476000  4.04441000  0.25539500  1
  Mo  Mo9  1  2.09219000  5.82403000  0.25248500  1
  Mo  Mo10  1  2.10069000  4.05432000  2.01951000  1
  Mo  Mo11  1  0.16106900  5.81808000  2.03875000  1
  Mo  Mo12  1  4.05341000  4.04531000  0.24997400  1
  Mo  Mo13  1  5.99242000  5.82072000  3.79421000  1
  Mo  Mo14  1  5.99063000  4.05857000  2.01675000  1
  Mo  Mo15  1  4.04763000  5.82045000  2.02521000  1
