# generated using pymatgen
data_Mo
_symmetry_space_group_name_H-M   'P 1'
_cell_length_a   8.54298607
_cell_length_b   6.87457198
_cell_length_c   3.42695880
_cell_angle_alpha   90.00000000
_cell_angle_beta   90.00000000
_cell_angle_gamma   90.00000000
_symmetry_Int_Tables_number   1
_chemical_formula_structural   Mo
_chemical_formula_sum   Mo16
_cell_volume   201.26314028
_cell_formula_units_Z   16
loop_
 _symmetry_equiv_pos_site_id
 _symmetry_equiv_pos_as_xyz
  1  'x, y, z'
loop_
 _atom_site_type_symbol
 _atom_site_label
 _atom_site_symmetry_multiplicity
 _atom_site_fract_x
 _atom_site_fract_y
 _atom_site_fract_z
 _atom_site_occupancy
  Mo  Mo0  1  1.91146000  2.33294000  0.32137500  1
  Mo  Mo1  1  1.89673000  0.61020400  2.01916000  1
  Mo  Mo2  1  -0.22351700  2.33345000  2.03876000  1
  Mo  Mo3  1  4.04531000  7.48281000  3.73138000  1
  Mo  Mo4  1  4.04802000  2.32646000  2.02438000  1
  Mo  Mo5  1  -0.21399700  4.04236000  3.73882000  1
  Mo  Mo6  1  1.91411000  5.77331000  0.31301400  1
  Mo  Mo7  1  1.92088000  4.05035000  2.01870000  1
  Mo  Mo8  1  -0.21504200  5.77221000  2.02914000  1
  Mo  Mo9  1  4.05976000  4.04649000  0.31163700  1
  Mo  Mo10  1  4.05931000  5.77496000  2.02767000  1
  Mo  Mo11  1  8.31594000  7.48479000  3.73168000  1
  Mo  Mo12  1  6.18119000  2.32752000  0.31409100  1
  Mo  Mo13  1  6.17124000  0.61747800  2.01878000  1
  Mo  Mo14  1  6.19383000  5.76906000  0.31402800  1
  Mo  Mo15  1  6.19180000  4.05563000  2.02041000  1
