# generated using pymatgen
data_Mo
_symmetry_space_group_name_H-M   'P 1'
_cell_length_a   8.47166093
_cell_length_b   6.88862830
_cell_length_c   3.43993258
_cell_angle_alpha   90.00000000
_cell_angle_beta   90.00000000
_cell_angle_gamma   90.00000000
_symmetry_Int_Tables_number   1
_chemical_formula_structural   Mo
_chemical_formula_sum   Mo16
_cell_volume   200.74800973
_cell_formula_units_Z   16
loop_
 _symmetry_equiv_pos_site_id
 _symmetry_equiv_pos_as_xyz
  1  'x, y, z'
loop_
 _atom_site_type_symbol
 _atom_site_label
 _atom_site_symmetry_multiplicity
 _atom_site_fract_x
 _atom_site_fract_y
 _atom_site_fract_z
 _atom_site_occupancy
  Mo  Mo0  1  1.93191000  2.32888000  0.29820700  1
  Mo  Mo1  1  1.93179000  0.61208000  2.02883000  1
  Mo  Mo2  1  -0.19125300  2.32787000  2.01939000  1
  Mo  Mo3  1  4.03137000  7.48798000  3.74865000  1
  Mo  Mo4  1  4.04511000  2.32634000  2.02916000  1
  Mo  Mo5  1  -0.17445900  4.04574000  3.74702000  1
  Mo  Mo6  1  1.93658000  5.76959000  0.29544900  1
  Mo  Mo7  1  1.95091000  4.05644000  2.03238000  1
  Mo  Mo8  1  -0.18693900  5.76163000  2.01550000  1
  Mo  Mo9  1  4.05067000  4.05305000  0.31079400  1
  Mo  Mo10  1  4.05433000  5.76803000  2.02620000  1
  Mo  Mo11  1  8.28185000  7.49410000  3.74519000  1
  Mo  Mo12  1  6.15282000  2.33279000  0.30245800  1
  Mo  Mo13  1  6.17207000  0.60848700  2.02845000  1
  Mo  Mo14  1  6.16466000  5.77697000  0.29995000  1
  Mo  Mo15  1  6.17693000  4.05003000  2.03244000  1
