# generated using pymatgen
data_Mo
_symmetry_space_group_name_H-M   'P 1'
_cell_length_a   8.53861874
_cell_length_b   6.87802744
_cell_length_c   3.42652297
_cell_angle_alpha   90.00000000
_cell_angle_beta   90.00000000
_cell_angle_gamma   90.00000000
_symmetry_Int_Tables_number   1
_chemical_formula_structural   Mo
_chemical_formula_sum   Mo16
_cell_volume   201.23576728
_cell_formula_units_Z   16
loop_
 _symmetry_equiv_pos_site_id
 _symmetry_equiv_pos_as_xyz
  1  'x, y, z'
loop_
 _atom_site_type_symbol
 _atom_site_label
 _atom_site_symmetry_multiplicity
 _atom_site_fract_x
 _atom_site_fract_y
 _atom_site_fract_z
 _atom_site_occupancy
  Mo  Mo0  1  1.91434000  2.33610000  0.31407600  1
  Mo  Mo1  1  1.90252000  0.61439400  2.01829000  1
  Mo  Mo2  1  -0.22635600  2.33161000  2.03241000  1
  Mo  Mo3  1  4.04721000  7.48092000  3.74052000  1
  Mo  Mo4  1  4.05253000  2.31601000  2.02070000  1
  Mo  Mo5  1  -0.22141400  4.04131000  3.75135000  1
  Mo  Mo6  1  1.90648000  5.77829000  0.30318700  1
  Mo  Mo7  1  1.92243000  4.05656000  2.03439000  1
  Mo  Mo8  1  -0.22298700  5.75931000  2.01765000  1
  Mo  Mo9  1  4.04932000  4.04407000  0.31815900  1
  Mo  Mo10  1  4.06081000  5.77078000  2.01304000  1
  Mo  Mo11  1  8.32089000  7.48402000  3.74755000  1
  Mo  Mo12  1  6.17935000  2.33338000  0.31074500  1
  Mo  Mo13  1  6.18443000  0.61908300  2.01514000  1
  Mo  Mo14  1  6.19086000  5.78124000  0.30414200  1
  Mo  Mo15  1  6.20097000  4.05291000  2.03213000  1
