# generated using pymatgen
data_Mo
_symmetry_space_group_name_H-M   'P 1'
_cell_length_a   7.95055210
_cell_length_b   7.03968871
_cell_length_c   3.52038932
_cell_angle_alpha   90.00000000
_cell_angle_beta   90.00000000
_cell_angle_gamma   90.00000000
_symmetry_Int_Tables_number   1
_chemical_formula_structural   Mo
_chemical_formula_sum   Mo16
_cell_volume   197.03411952
_cell_formula_units_Z   16
loop_
 _symmetry_equiv_pos_site_id
 _symmetry_equiv_pos_as_xyz
  1  'x, y, z'
loop_
 _atom_site_type_symbol
 _atom_site_label
 _atom_site_symmetry_multiplicity
 _atom_site_fract_x
 _atom_site_fract_y
 _atom_site_fract_z
 _atom_site_occupancy
  Mo  Mo0  1  0.06882070  7.56889000  3.78473000  1
  Mo  Mo1  1  2.06526000  2.29302000  0.25915800  1
  Mo  Mo2  1  2.05389000  0.52959400  2.03294000  1
  Mo  Mo3  1  0.07306140  2.29351000  2.02443000  1
  Mo  Mo4  1  4.02753000  7.56533000  3.79137000  1
  Mo  Mo5  1  6.02157000  2.28203000  0.25427200  1
  Mo  Mo6  1  6.03088000  0.53989100  2.03604000  1
  Mo  Mo7  1  4.04890000  2.27941000  2.01738000  1
  Mo  Mo8  1  8.04368000  4.04530000  0.26170600  1
  Mo  Mo9  1  2.06959000  5.81647000  0.26258100  1
  Mo  Mo10  1  2.06900000  4.05210000  2.01674000  1
  Mo  Mo11  1  0.07852450  5.80200000  2.02865000  1
  Mo  Mo12  1  4.05977000  4.05158000  0.26847500  1
  Mo  Mo13  1  6.04149000  5.81408000  3.78614000  1
  Mo  Mo14  1  6.03754000  4.05310000  2.02107000  1
  Mo  Mo15  1  4.05996000  5.81369000  2.03392000  1
