# generated using pymatgen
data_Mo
_symmetry_space_group_name_H-M   'P 1'
_cell_length_a   7.44545475
_cell_length_b   7.21212599
_cell_length_c   3.60517764
_cell_angle_alpha   90.00000000
_cell_angle_beta   90.00000000
_cell_angle_gamma   90.00000000
_symmetry_Int_Tables_number   1
_chemical_formula_structural   Mo
_chemical_formula_sum   Mo16
_cell_volume   193.58923425
_cell_formula_units_Z   16
loop_
 _symmetry_equiv_pos_site_id
 _symmetry_equiv_pos_as_xyz
  1  'x, y, z'
loop_
 _atom_site_type_symbol
 _atom_site_label
 _atom_site_symmetry_multiplicity
 _atom_site_fract_x
 _atom_site_fract_y
 _atom_site_fract_z
 _atom_site_occupancy
  Mo  Mo0  1  0.33015000  7.66138000  3.83172000  1
  Mo  Mo1  1  2.19141000  2.23984000  0.21244000  1
  Mo  Mo2  1  2.19162000  0.43761800  2.03237000  1
  Mo  Mo3  1  0.32775600  2.25097000  2.01666000  1
  Mo  Mo4  1  4.04447000  7.66469000  3.83323000  1
  Mo  Mo5  1  5.90178000  2.23974000  0.21598900  1
  Mo  Mo6  1  5.90304000  0.43927200  2.03406000  1
  Mo  Mo7  1  4.04622000  2.24351000  2.02378000  1
  Mo  Mo8  1  7.78209000  4.05750000  0.21737600  1
  Mo  Mo9  1  2.19207000  5.85011000  0.22243000  1
  Mo  Mo10  1  2.19064000  4.04733000  2.02752000  1
  Mo  Mo11  1  0.33046300  5.85331000  2.02735000  1
  Mo  Mo12  1  4.05479000  4.05424000  0.21883500  1
  Mo  Mo13  1  5.90881000  5.85382000  3.82597000  1
  Mo  Mo14  1  5.91037000  4.04315000  2.02840000  1
  Mo  Mo15  1  4.04887000  5.86352000  2.02669000  1
