# generated using pymatgen
data_Mo
_symmetry_space_group_name_H-M   'P 1'
_cell_length_a   8.57792091
_cell_length_b   6.85810816
_cell_length_c   3.42600346
_cell_angle_alpha   90.00000000
_cell_angle_beta   90.00000000
_cell_angle_gamma   90.00000000
_symmetry_Int_Tables_number   1
_chemical_formula_structural   Mo
_chemical_formula_sum   Mo16
_cell_volume   201.54599145
_cell_formula_units_Z   16
loop_
 _symmetry_equiv_pos_site_id
 _symmetry_equiv_pos_as_xyz
  1  'x, y, z'
loop_
 _atom_site_type_symbol
 _atom_site_label
 _atom_site_symmetry_multiplicity
 _atom_site_fract_x
 _atom_site_fract_y
 _atom_site_fract_z
 _atom_site_occupancy
  Mo  Mo0  1  1.91399000  2.33584000  0.30271400  1
  Mo  Mo1  1  1.90822000  0.61447600  2.03455000  1
  Mo  Mo2  1  -0.23435900  2.33817000  2.01313000  1
  Mo  Mo3  1  4.03855000  7.48102000  3.74555000  1
  Mo  Mo4  1  4.04229000  2.33871000  2.01085000  1
  Mo  Mo5  1  -0.23393700  4.05226000  3.74686000  1
  Mo  Mo6  1  1.91608000  5.75725000  0.31255700  1
  Mo  Mo7  1  1.91051000  4.04685000  2.03020000  1
  Mo  Mo8  1  -0.23830600  5.76862000  2.02396000  1
  Mo  Mo9  1  4.05480000  4.05735000  0.30968200  1
  Mo  Mo10  1  4.04257000  5.76574000  2.01341000  1
  Mo  Mo11  1  8.33047000  7.48940000  3.75631000  1
  Mo  Mo12  1  6.19560000  2.33924000  0.30576300  1
  Mo  Mo13  1  6.19483000  0.61069700  2.03163000  1
  Mo  Mo14  1  6.20191000  5.76219000  0.31055400  1
  Mo  Mo15  1  6.17887000  4.04219000  2.02629000  1
