# generated using pymatgen
data_Mo
_symmetry_space_group_name_H-M   'P 1'
_cell_length_a   8.44109342
_cell_length_b   6.88445318
_cell_length_c   3.45073056
_cell_angle_alpha   90.00000000
_cell_angle_beta   90.00000000
_cell_angle_gamma   90.00000000
_symmetry_Int_Tables_number   1
_chemical_formula_structural   Mo
_chemical_formula_sum   Mo16
_cell_volume   200.52993238
_cell_formula_units_Z   16
loop_
 _symmetry_equiv_pos_site_id
 _symmetry_equiv_pos_as_xyz
  1  'x, y, z'
loop_
 _atom_site_type_symbol
 _atom_site_label
 _atom_site_symmetry_multiplicity
 _atom_site_fract_x
 _atom_site_fract_y
 _atom_site_fract_z
 _atom_site_occupancy
  Mo  Mo0  1  1.93662000  2.33270000  0.30202500  1
  Mo  Mo1  1  1.94179000  0.60455700  2.02008000  1
  Mo  Mo2  1  -0.17309800  2.33091000  2.02337000  1
  Mo  Mo3  1  4.05738000  7.49276000  3.76092000  1
  Mo  Mo4  1  4.05826000  2.32563000  2.02014000  1
  Mo  Mo5  1  -0.17319900  4.05153000  3.74767000  1
  Mo  Mo6  1  1.92794000  5.77772000  0.29722400  1
  Mo  Mo7  1  1.93738000  4.04569000  2.02790000  1
  Mo  Mo8  1  -0.17264800  5.76610000  2.01453000  1
  Mo  Mo9  1  4.04157000  4.05118000  0.30463000  1
  Mo  Mo10  1  4.05572000  5.77180000  2.02327000  1
  Mo  Mo11  1  8.28227000  7.49010000  3.75299000  1
  Mo  Mo12  1  6.15196000  2.32906000  0.29761500  1
  Mo  Mo13  1  6.16297000  0.60888000  2.02337000  1
  Mo  Mo14  1  6.15247000  5.77195000  0.30110200  1
  Mo  Mo15  1  6.17151000  4.04941000  2.03245000  1
