# generated using pymatgen
data_Mo
_symmetry_space_group_name_H-M   'P 1'
_cell_length_a   7.41197535
_cell_length_b   7.22284067
_cell_length_c   3.61259937
_cell_angle_alpha   90.00000000
_cell_angle_beta   90.00000000
_cell_angle_gamma   90.00000000
_symmetry_Int_Tables_number   1
_chemical_formula_structural   Mo
_chemical_formula_sum   Mo16
_cell_volume   193.40237517
_cell_formula_units_Z   16
loop_
 _symmetry_equiv_pos_site_id
 _symmetry_equiv_pos_as_xyz
  1  'x, y, z'
loop_
 _atom_site_type_symbol
 _atom_site_label
 _atom_site_symmetry_multiplicity
 _atom_site_fract_x
 _atom_site_fract_y
 _atom_site_fract_z
 _atom_site_occupancy
  Mo  Mo0  1  0.33747800  7.65775000  3.82536000  1
  Mo  Mo1  1  2.20140000  2.25014000  0.22018500  1
  Mo  Mo2  1  2.17675000  0.44393900  2.01957000  1
  Mo  Mo3  1  0.34055100  2.24067000  2.02786000  1
  Mo  Mo4  1  4.04034000  7.65013000  3.83436000  1
  Mo  Mo5  1  5.90299000  2.24437000  0.22074100  1
  Mo  Mo6  1  5.89536000  0.44799600  2.02276000  1
  Mo  Mo7  1  4.04003000  2.23933000  2.03002000  1
  Mo  Mo8  1  7.76065000  4.03573000  0.20320400  1
  Mo  Mo9  1  2.20688000  5.86078000  0.22885900  1
  Mo  Mo10  1  2.21113000  4.05777000  2.00413000  1
  Mo  Mo11  1  0.34605100  5.85137000  2.03602000  1
  Mo  Mo12  1  4.05767000  4.04739000  0.21218600  1
  Mo  Mo13  1  5.91460000  5.86147000  3.84755000  1
  Mo  Mo14  1  5.90166000  4.05785000  2.00818000  1
  Mo  Mo15  1  4.05447000  5.85332000  2.04642000  1
