# generated using pymatgen
data_Mo
_symmetry_space_group_name_H-M   'P 1'
_cell_length_a   7.27951473
_cell_length_b   7.27770257
_cell_length_c   3.63884974
_cell_angle_alpha   90.00000000
_cell_angle_beta   90.00000000
_cell_angle_gamma   90.00000000
_symmetry_Int_Tables_number   1
_chemical_formula_structural   Mo
_chemical_formula_sum   Mo16
_cell_volume   192.77950184
_cell_formula_units_Z   16
loop_
 _symmetry_equiv_pos_site_id
 _symmetry_equiv_pos_as_xyz
  1  'x, y, z'
loop_
 _atom_site_type_symbol
 _atom_site_label
 _atom_site_symmetry_multiplicity
 _atom_site_fract_x
 _atom_site_fract_y
 _atom_site_fract_z
 _atom_site_occupancy
  Mo  Mo0  1  0.41948600  7.67573000  3.83145000  1
  Mo  Mo1  1  2.24240000  2.23629000  0.22169500  1
  Mo  Mo2  1  2.24137000  0.41635200  2.01090000  1
  Mo  Mo3  1  0.41068300  2.22590000  2.04143000  1
  Mo  Mo4  1  4.06459000  7.68460000  3.82736000  1
  Mo  Mo5  1  5.88267000  2.23449000  0.22045400  1
  Mo  Mo6  1  5.86288000  0.42037300  2.00995000  1
  Mo  Mo7  1  4.05220000  2.22627000  2.03588000  1
  Mo  Mo8  1  7.67735000  4.04454000  0.21318900  1
  Mo  Mo9  1  2.23317000  5.88076000  0.21251300  1
  Mo  Mo10  1  2.21614000  4.05355000  2.01527000  1
  Mo  Mo11  1  0.40826100  5.86873000  2.03754000  1
  Mo  Mo12  1  4.03389000  4.03659000  0.20898400  1
  Mo  Mo13  1  5.86882000  5.86983000  3.84180000  1
  Mo  Mo14  1  5.86780000  4.06325000  2.01321000  1
  Mo  Mo15  1  4.03878000  5.86276000  2.01955000  1
