# generated using pymatgen
data_Mo
_symmetry_space_group_name_H-M   'P 1'
_cell_length_a   7.80935727
_cell_length_b   7.08339715
_cell_length_c   3.54270291
_cell_angle_alpha   90.00000000
_cell_angle_beta   90.00000000
_cell_angle_gamma   90.00000000
_symmetry_Int_Tables_number   1
_chemical_formula_structural   Mo
_chemical_formula_sum   Mo16
_cell_volume   195.97091424
_cell_formula_units_Z   16
loop_
 _symmetry_equiv_pos_site_id
 _symmetry_equiv_pos_as_xyz
  1  'x, y, z'
loop_
 _atom_site_type_symbol
 _atom_site_label
 _atom_site_symmetry_multiplicity
 _atom_site_fract_x
 _atom_site_fract_y
 _atom_site_fract_z
 _atom_site_occupancy
  Mo  Mo0  1  0.15605200  7.59609000  3.80093000  1
  Mo  Mo1  1  2.09872000  2.27077000  0.25457400  1
  Mo  Mo2  1  2.10441000  0.50568500  2.02664000  1
  Mo  Mo3  1  0.14708400  2.28045000  2.02576000  1
  Mo  Mo4  1  4.05361000  7.60076000  3.78893000  1
  Mo  Mo5  1  5.99781000  2.27933000  0.25641400  1
  Mo  Mo6  1  5.99856000  0.49836600  2.02084000  1
  Mo  Mo7  1  4.05647000  2.28379000  2.02558000  1
  Mo  Mo8  1  7.95339000  4.05853000  0.24836800  1
  Mo  Mo9  1  2.09653000  5.81150000  0.26394000  1
  Mo  Mo10  1  2.09599000  4.04799000  2.02697000  1
  Mo  Mo11  1  0.14773800  5.83060000  2.03426000  1
  Mo  Mo12  1  4.03703000  4.04927000  0.23664500  1
  Mo  Mo13  1  5.98917000  5.81557000  3.80206000  1
  Mo  Mo14  1  6.00681000  4.04411000  2.02042000  1
  Mo  Mo15  1  4.05125000  5.82721000  2.02497000  1
