# generated using pymatgen
data_Mo
_symmetry_space_group_name_H-M   'P 1'
_cell_length_a   7.63177262
_cell_length_b   7.14423957
_cell_length_c   3.57151723
_cell_angle_alpha   90.00000000
_cell_angle_beta   90.00000000
_cell_angle_gamma   90.00000000
_symmetry_Int_Tables_number   1
_chemical_formula_structural   Mo
_chemical_formula_sum   Mo16
_cell_volume   194.73059102
_cell_formula_units_Z   16
loop_
 _symmetry_equiv_pos_site_id
 _symmetry_equiv_pos_as_xyz
  1  'x, y, z'
loop_
 _atom_site_type_symbol
 _atom_site_label
 _atom_site_symmetry_multiplicity
 _atom_site_fract_x
 _atom_site_fract_y
 _atom_site_fract_z
 _atom_site_occupancy
  Mo  Mo0  1  0.23714800  7.62381000  3.82653000  1
  Mo  Mo1  1  2.14262000  2.25802000  0.23321800  1
  Mo  Mo2  1  2.14509000  0.47430600  2.03402000  1
  Mo  Mo3  1  0.23165600  2.27345000  2.01448000  1
  Mo  Mo4  1  4.05933000  7.63037000  3.82112000  1
  Mo  Mo5  1  5.96696000  2.26596000  0.23065300  1
  Mo  Mo6  1  5.96017000  0.46844200  2.03007000  1
  Mo  Mo7  1  4.05652000  2.27235000  2.01040000  1
  Mo  Mo8  1  7.86201000  4.06265000  0.23929600  1
  Mo  Mo9  1  2.13858000  5.82914000  0.23934900  1
  Mo  Mo10  1  2.12230000  4.04365000  2.03125000  1
  Mo  Mo11  1  0.22859400  5.83374000  2.01558000  1
  Mo  Mo12  1  4.05006000  4.05386000  0.23401200  1
  Mo  Mo13  1  5.96150000  5.83466000  3.81625000  1
  Mo  Mo14  1  5.95764000  4.03782000  2.02861000  1
  Mo  Mo15  1  4.04805000  5.83777000  2.02367000  1
