# generated using pymatgen
data_Mo
_symmetry_space_group_name_H-M   'P 1'
_cell_length_a   8.50077298
_cell_length_b   6.86785924
_cell_length_c   3.44232106
_cell_angle_alpha   90.00000000
_cell_angle_beta   90.00000000
_cell_angle_gamma   90.00000000
_symmetry_Int_Tables_number   1
_chemical_formula_structural   Mo
_chemical_formula_sum   Mo16
_cell_volume   200.96997487
_cell_formula_units_Z   16
loop_
 _symmetry_equiv_pos_site_id
 _symmetry_equiv_pos_as_xyz
  1  'x, y, z'
loop_
 _atom_site_type_symbol
 _atom_site_label
 _atom_site_symmetry_multiplicity
 _atom_site_fract_x
 _atom_site_fract_y
 _atom_site_fract_z
 _atom_site_occupancy
  Mo  Mo0  1  1.91995000  2.33973000  0.31426800  1
  Mo  Mo1  1  1.92068000  0.61595700  2.01938000  1
  Mo  Mo2  1  -0.19823900  2.33994000  2.03299000  1
  Mo  Mo3  1  4.03315000  7.47286000  3.73476000  1
  Mo  Mo4  1  4.04932000  2.33569000  2.02818000  1
  Mo  Mo5  1  -0.18274400  4.04059000  3.74702000  1
  Mo  Mo6  1  1.92484000  5.76814000  0.31418900  1
  Mo  Mo7  1  1.93903000  4.05045000  2.01248000  1
  Mo  Mo8  1  -0.19899000  5.76359000  2.03800000  1
  Mo  Mo9  1  4.05872000  4.05063000  0.30230900  1
  Mo  Mo10  1  4.05812000  5.76352000  2.02399000  1
  Mo  Mo11  1  8.29909000  7.48094000  3.73683000  1
  Mo  Mo12  1  6.15642000  2.33168000  0.31390400  1
  Mo  Mo13  1  6.18173000  0.62524200  2.01974000  1
  Mo  Mo14  1  6.16633000  5.76676000  0.30786400  1
  Mo  Mo15  1  6.17183000  4.05428000  2.01178000  1
