# generated using pymatgen
data_Mo
_symmetry_space_group_name_H-M   'P 1'
_cell_length_a   8.01168711
_cell_length_b   7.02132094
_cell_length_c   3.51083732
_cell_angle_alpha   90.00000000
_cell_angle_beta   90.00000000
_cell_angle_gamma   90.00000000
_symmetry_Int_Tables_number   1
_chemical_formula_structural   Mo
_chemical_formula_sum   Mo16
_cell_volume   197.49382026
_cell_formula_units_Z   16
loop_
 _symmetry_equiv_pos_site_id
 _symmetry_equiv_pos_as_xyz
  1  'x, y, z'
loop_
 _atom_site_type_symbol
 _atom_site_label
 _atom_site_symmetry_multiplicity
 _atom_site_fract_x
 _atom_site_fract_y
 _atom_site_fract_z
 _atom_site_occupancy
  Mo  Mo0  1  0.04284500  7.55879000  3.76571000  1
  Mo  Mo1  1  2.05192000  2.28594000  0.27807200  1
  Mo  Mo2  1  2.05568000  0.53386400  2.02244000  1
  Mo  Mo3  1  0.04092380  2.29848000  2.02679000  1
  Mo  Mo4  1  4.05577000  7.57045000  3.77246000  1
  Mo  Mo5  1  6.06756000  2.28612000  0.28015000  1
  Mo  Mo6  1  6.05555000  0.53557200  2.02475000  1
  Mo  Mo7  1  4.05795000  2.30249000  2.02949000  1
  Mo  Mo8  1  8.05090000  4.05930000  0.26638400  1
  Mo  Mo9  1  2.04896000  5.80692000  0.27424100  1
  Mo  Mo10  1  2.02326000  4.04102000  2.01810000  1
  Mo  Mo11  1  0.03767040  5.81374000  2.02607000  1
  Mo  Mo12  1  4.04485000  4.05231000  0.27319000  1
  Mo  Mo13  1  6.05889000  5.79845000  3.78490000  1
  Mo  Mo14  1  6.05044000  4.04828000  2.02071000  1
  Mo  Mo15  1  4.04513000  5.80828000  2.02571000  1
