# generated using pymatgen
data_Mo
_symmetry_space_group_name_H-M   'P 1'
_cell_length_a   7.88068242
_cell_length_b   7.06300765
_cell_length_c   3.53044128
_cell_angle_alpha   90.00000000
_cell_angle_beta   90.00000000
_cell_angle_gamma   90.00000000
_symmetry_Int_Tables_number   1
_chemical_formula_structural   Mo
_chemical_formula_sum   Mo16
_cell_volume   196.50902282
_cell_formula_units_Z   16
loop_
 _symmetry_equiv_pos_site_id
 _symmetry_equiv_pos_as_xyz
  1  'x, y, z'
loop_
 _atom_site_type_symbol
 _atom_site_label
 _atom_site_symmetry_multiplicity
 _atom_site_fract_x
 _atom_site_fract_y
 _atom_site_fract_z
 _atom_site_occupancy
  Mo  Mo0  1  0.10137400  7.58106000  3.78391000  1
  Mo  Mo1  1  2.07188000  2.27834000  0.26879900  1
  Mo  Mo2  1  2.07661000  0.51377600  2.02409000  1
  Mo  Mo3  1  0.10613400  2.29780000  2.02806000  1
  Mo  Mo4  1  4.05652000  7.58527000  3.78145000  1
  Mo  Mo5  1  6.02212000  2.27779000  0.26804500  1
  Mo  Mo6  1  6.01147000  0.51582800  2.02240000  1
  Mo  Mo7  1  4.04820000  2.29342000  2.02372000  1
  Mo  Mo8  1  7.99103000  4.05581000  0.25362900  1
  Mo  Mo9  1  2.07314000  5.81053000  0.27637500  1
  Mo  Mo10  1  2.07613000  4.04274000  2.00882000  1
  Mo  Mo11  1  0.11389200  5.82194000  2.03904000  1
  Mo  Mo12  1  4.06172000  4.05232000  0.25103400  1
  Mo  Mo13  1  6.02870000  5.80513000  3.80290000  1
  Mo  Mo14  1  6.03079000  4.04628000  2.00702000  1
  Mo  Mo15  1  4.04961000  5.82196000  2.03027000  1
