# generated using pymatgen
data_Mo
_symmetry_space_group_name_H-M   'P 1'
_cell_length_a   7.85011443
_cell_length_b   7.07124746
_cell_length_c   3.53588319
_cell_angle_alpha   90.00000000
_cell_angle_beta   90.00000000
_cell_angle_gamma   90.00000000
_symmetry_Int_Tables_number   1
_chemical_formula_structural   Mo
_chemical_formula_sum   Mo16
_cell_volume   196.27723536
_cell_formula_units_Z   16
loop_
 _symmetry_equiv_pos_site_id
 _symmetry_equiv_pos_as_xyz
  1  'x, y, z'
loop_
 _atom_site_type_symbol
 _atom_site_label
 _atom_site_symmetry_multiplicity
 _atom_site_fract_x
 _atom_site_fract_y
 _atom_site_fract_z
 _atom_site_occupancy
  Mo  Mo0  1  0.12807000  7.58142000  3.80797000  1
  Mo  Mo1  1  2.08866000  2.27654000  0.25082100  1
  Mo  Mo2  1  2.09127000  0.52306100  2.02925000  1
  Mo  Mo3  1  0.12426300  2.27553000  2.02839000  1
  Mo  Mo4  1  4.06351000  7.58378000  3.79551000  1
  Mo  Mo5  1  6.02949000  2.28610000  0.24577200  1
  Mo  Mo6  1  6.01657000  0.51388100  2.02326000  1
  Mo  Mo7  1  4.05171000  2.28784000  2.01946000  1
  Mo  Mo8  1  7.96421000  4.05318000  0.25154600  1
  Mo  Mo9  1  2.08858000  5.81689000  0.26166300  1
  Mo  Mo10  1  2.07685000  4.05300000  2.02597000  1
  Mo  Mo11  1  0.11952000  5.82120000  2.03453000  1
  Mo  Mo12  1  4.04334000  4.04565000  0.23885500  1
  Mo  Mo13  1  6.01329000  5.82010000  3.79761000  1
  Mo  Mo14  1  6.00793000  4.05169000  2.02052000  1
  Mo  Mo15  1  4.04262000  5.81015000  2.03299000  1
