# generated using pymatgen
data_Mo
_symmetry_space_group_name_H-M   'P 1'
_cell_length_a   7.64924005
_cell_length_b   7.13952670
_cell_length_c   3.56783080
_cell_angle_alpha   90.00000000
_cell_angle_beta   90.00000000
_cell_angle_gamma   90.00000000
_symmetry_Int_Tables_number   1
_chemical_formula_structural   Mo
_chemical_formula_sum   Mo16
_cell_volume   194.84620984
_cell_formula_units_Z   16
loop_
 _symmetry_equiv_pos_site_id
 _symmetry_equiv_pos_as_xyz
  1  'x, y, z'
loop_
 _atom_site_type_symbol
 _atom_site_label
 _atom_site_symmetry_multiplicity
 _atom_site_fract_x
 _atom_site_fract_y
 _atom_site_fract_z
 _atom_site_occupancy
  Mo  Mo0  1  0.21529800  7.62397000  3.80180000  1
  Mo  Mo1  1  2.13906000  2.26246000  0.25280000  1
  Mo  Mo2  1  2.13377000  0.47856500  2.00550000  1
  Mo  Mo3  1  0.23168200  2.26877000  2.03273000  1
  Mo  Mo4  1  4.03588000  7.61590000  3.80321000  1
  Mo  Mo5  1  5.95218000  2.26141000  0.25641600  1
  Mo  Mo6  1  5.95565000  0.47831400  2.00684000  1
  Mo  Mo7  1  4.04323000  2.26068000  2.04042000  1
  Mo  Mo8  1  7.88412000  4.04439000  0.23416000  1
  Mo  Mo9  1  2.14182000  5.82913000  0.24778200  1
  Mo  Mo10  1  2.14736000  4.05545000  2.02058000  1
  Mo  Mo11  1  0.23394000  5.83828000  2.02559000  1
  Mo  Mo12  1  4.06303000  4.05006000  0.23552100  1
  Mo  Mo13  1  5.96831000  5.83665000  3.81706000  1
  Mo  Mo14  1  5.95347000  4.04698000  2.02163000  1
  Mo  Mo15  1  4.05197000  5.84901000  2.03013000  1
