# generated using pymatgen
data_Mo
_symmetry_space_group_name_H-M   'P 1'
_cell_length_a   7.80644636
_cell_length_b   7.08613616
_cell_length_c   3.54232121
_cell_angle_alpha   90.00000000
_cell_angle_beta   90.00000000
_cell_angle_gamma   90.00000000
_symmetry_Int_Tables_number   1
_chemical_formula_structural   Mo
_chemical_formula_sum   Mo16
_cell_volume   195.95250148
_cell_formula_units_Z   16
loop_
 _symmetry_equiv_pos_site_id
 _symmetry_equiv_pos_as_xyz
  1  'x, y, z'
loop_
 _atom_site_type_symbol
 _atom_site_label
 _atom_site_symmetry_multiplicity
 _atom_site_fract_x
 _atom_site_fract_y
 _atom_site_fract_z
 _atom_site_occupancy
  Mo  Mo0  1  0.14575600  7.59734000  3.79625000  1
  Mo  Mo1  1  2.08828000  2.26924000  0.26237600  1
  Mo  Mo2  1  2.10251000  0.50483000  2.01415000  1
  Mo  Mo3  1  0.14700700  2.28119000  2.02930000  1
  Mo  Mo4  1  4.05162000  7.60058000  3.78675000  1
  Mo  Mo5  1  5.99754000  2.27893000  0.26604700  1
  Mo  Mo6  1  6.00104000  0.49496800  2.01045000  1
  Mo  Mo7  1  4.05365000  2.29245000  2.03400000  1
  Mo  Mo8  1  7.95706000  4.05712000  0.24631600  1
  Mo  Mo9  1  2.09609000  5.80966000  0.26770900  1
  Mo  Mo10  1  2.10014000  4.04667000  2.02486000  1
  Mo  Mo11  1  0.15115100  5.83584000  2.03322000  1
  Mo  Mo12  1  4.04927000  4.04858000  0.23681200  1
  Mo  Mo13  1  5.99123000  5.81220000  3.80473000  1
  Mo  Mo14  1  6.00936000  4.04462000  2.01998000  1
  Mo  Mo15  1  4.05186000  5.82577000  2.02473000  1
