# generated using pymatgen
data_Mo
_symmetry_space_group_name_H-M   'P 1'
_cell_length_a   8.08737959
_cell_length_b   6.99796444
_cell_length_c   3.49970555
_cell_angle_alpha   90.00000000
_cell_angle_beta   90.00000000
_cell_angle_gamma   90.00000000
_symmetry_Int_Tables_number   1
_chemical_formula_structural   Mo
_chemical_formula_sum   Mo16
_cell_volume   198.06651747
_cell_formula_units_Z   16
loop_
 _symmetry_equiv_pos_site_id
 _symmetry_equiv_pos_as_xyz
  1  'x, y, z'
loop_
 _atom_site_type_symbol
 _atom_site_label
 _atom_site_symmetry_multiplicity
 _atom_site_fract_x
 _atom_site_fract_y
 _atom_site_fract_z
 _atom_site_occupancy
  Mo  Mo0  1  0.01696100  7.55448000  3.77988000  1
  Mo  Mo1  1  2.02557000  2.28821000  0.27126800  1
  Mo  Mo2  1  2.02822000  0.54926500  2.02741000  1
  Mo  Mo3  1  0.00531096  2.29541000  2.01679000  1
  Mo  Mo4  1  4.05924000  7.55801000  3.78163000  1
  Mo  Mo5  1  6.07596000  2.29774000  0.27294600  1
  Mo  Mo6  1  6.07575000  0.54027500  2.02812000  1
  Mo  Mo7  1  4.06189000  2.30865000  2.02250000  1
  Mo  Mo8  1  8.08882000  4.05906000  0.26227900  1
  Mo  Mo9  1  2.02395000  5.79496000  0.28231200  1
  Mo  Mo10  1  2.01950000  4.04422000  2.02275000  1
  Mo  Mo11  1  0.00270315  5.81220000  2.02469000  1
  Mo  Mo12  1  4.03644000  4.05403000  0.26326200  1
  Mo  Mo13  1  6.06169000  5.79553000  3.78627000  1
  Mo  Mo14  1  6.07570000  4.04405000  2.02391000  1
  Mo  Mo15  1  4.05491000  5.80391000  2.03428000  1
