# generated using pymatgen
data_Mo
_symmetry_space_group_name_H-M   'P 1'
_cell_length_a   7.37704054
_cell_length_b   7.23711160
_cell_length_c   3.61947846
_cell_angle_alpha   90.00000000
_cell_angle_beta   90.00000000
_cell_angle_gamma   90.00000000
_symmetry_Int_Tables_number   1
_chemical_formula_structural   Mo
_chemical_formula_sum   Mo16
_cell_volume   193.23840154
_cell_formula_units_Z   16
loop_
 _symmetry_equiv_pos_site_id
 _symmetry_equiv_pos_as_xyz
  1  'x, y, z'
loop_
 _atom_site_type_symbol
 _atom_site_label
 _atom_site_symmetry_multiplicity
 _atom_site_fract_x
 _atom_site_fract_y
 _atom_site_fract_z
 _atom_site_occupancy
  Mo  Mo0  1  0.34100800  7.66356000  3.83941000  1
  Mo  Mo1  1  2.19531000  2.24050000  0.21083400  1
  Mo  Mo2  1  2.20352000  0.43291600  2.02966000  1
  Mo  Mo3  1  0.35312300  2.24302000  2.01245000  1
  Mo  Mo4  1  4.04366000  7.67189000  3.84830000  1
  Mo  Mo5  1  5.89534000  2.24488000  0.21057800  1
  Mo  Mo6  1  5.88376000  0.42921100  2.03361000  1
  Mo  Mo7  1  4.04748000  2.24704000  2.01622000  1
  Mo  Mo8  1  7.74192000  4.05288000  0.20739000  1
  Mo  Mo9  1  2.20719000  5.86046000  0.21907000  1
  Mo  Mo10  1  2.20846000  4.04838000  2.01643000  1
  Mo  Mo11  1  0.36856600  5.85705000  2.01908000  1
  Mo  Mo12  1  4.05920000  4.04596000  0.21623400  1
  Mo  Mo13  1  5.90435000  5.85599000  3.84581000  1
  Mo  Mo14  1  5.91751000  4.05009000  2.02139000  1
  Mo  Mo15  1  4.05255000  5.85617000  2.03407000  1
