# generated using pymatgen
data_Mo
_symmetry_space_group_name_H-M   'P 1'
_cell_length_a   8.02624362
_cell_length_b   7.01721036
_cell_length_c   3.50849771
_cell_angle_alpha   90.00000000
_cell_angle_beta   90.00000000
_cell_angle_gamma   90.00000000
_symmetry_Int_Tables_number   1
_chemical_formula_structural   Mo
_chemical_formula_sum   Mo16
_cell_volume   197.60504655
_cell_formula_units_Z   16
loop_
 _symmetry_equiv_pos_site_id
 _symmetry_equiv_pos_as_xyz
  1  'x, y, z'
loop_
 _atom_site_type_symbol
 _atom_site_label
 _atom_site_symmetry_multiplicity
 _atom_site_fract_x
 _atom_site_fract_y
 _atom_site_fract_z
 _atom_site_occupancy
  Mo  Mo0  1  0.03366770  7.56006000  3.78739000  1
  Mo  Mo1  1  2.03995000  2.29893000  0.26225200  1
  Mo  Mo2  1  2.03454000  0.54761600  2.02666000  1
  Mo  Mo3  1  0.03373310  2.29204000  2.02401000  1
  Mo  Mo4  1  4.03772000  7.55292000  3.78611000  1
  Mo  Mo5  1  6.04459000  2.30078000  0.26294500  1
  Mo  Mo6  1  6.05198000  0.54323000  2.02541000  1
  Mo  Mo7  1  4.03809000  2.29189000  2.02623000  1
  Mo  Mo8  1  8.06815000  4.04388000  0.26359400  1
  Mo  Mo9  1  2.04879000  5.79870000  0.26893800  1
  Mo  Mo10  1  2.07413000  4.05957000  2.02573000  1
  Mo  Mo11  1  0.04195260  5.80051000  2.02636000  1
  Mo  Mo12  1  4.05195000  4.04828000  0.26211000  1
  Mo  Mo13  1  6.05248000  5.80771000  3.78323000  1
  Mo  Mo14  1  6.06796000  4.05095000  2.02482000  1
  Mo  Mo15  1  4.05407000  5.80294000  2.03571000  1
