# generated using pymatgen
data_Mo
_symmetry_space_group_name_H-M   'P 1'
_cell_length_a   7.93745106
_cell_length_b   7.04479748
_cell_length_c   3.52182937
_cell_angle_alpha   90.00000000
_cell_angle_beta   90.00000000
_cell_angle_gamma   90.00000000
_symmetry_Int_Tables_number   1
_chemical_formula_structural   Mo
_chemical_formula_sum   Mo16
_cell_volume   196.93272197
_cell_formula_units_Z   16
loop_
 _symmetry_equiv_pos_site_id
 _symmetry_equiv_pos_as_xyz
  1  'x, y, z'
loop_
 _atom_site_type_symbol
 _atom_site_label
 _atom_site_symmetry_multiplicity
 _atom_site_fract_x
 _atom_site_fract_y
 _atom_site_fract_z
 _atom_site_occupancy
  Mo  Mo0  1  0.08204170  7.57455000  3.78156000  1
  Mo  Mo1  1  2.05935000  2.28646000  0.27104600  1
  Mo  Mo2  1  2.06748000  0.52739000  2.01083000  1
  Mo  Mo3  1  0.08208620  2.28780000  2.02338000  1
  Mo  Mo4  1  4.06472000  7.57562000  3.78278000  1
  Mo  Mo5  1  6.04607000  2.29376000  0.27922300  1
  Mo  Mo6  1  6.04091000  0.51905300  2.01203000  1
  Mo  Mo7  1  4.04715000  2.30000000  2.03834000  1
  Mo  Mo8  1  8.00531000  4.05377000  0.26265400  1
  Mo  Mo9  1  2.06029000  5.80286000  0.26542800  1
  Mo  Mo10  1  2.06758000  4.04793000  2.03214000  1
  Mo  Mo11  1  0.07896770  5.81711000  2.01632000  1
  Mo  Mo12  1  4.04778000  4.05131000  0.26421700  1
  Mo  Mo13  1  6.03286000  5.80745000  3.78689000  1
  Mo  Mo14  1  6.03607000  4.04488000  2.03240000  1
  Mo  Mo15  1  4.04389000  5.81004000  2.01893000  1
