# generated using pymatgen
data_Mo
_symmetry_space_group_name_H-M   'P 1'
_cell_length_a   8.29698768
_cell_length_b   6.93872774
_cell_length_c   3.46653771
_cell_angle_alpha   90.00000000
_cell_angle_beta   90.00000000
_cell_angle_gamma   90.00000000
_symmetry_Int_Tables_number   1
_chemical_formula_structural   Mo
_chemical_formula_sum   Mo16
_cell_volume   199.57044314
_cell_formula_units_Z   16
loop_
 _symmetry_equiv_pos_site_id
 _symmetry_equiv_pos_as_xyz
  1  'x, y, z'
loop_
 _atom_site_type_symbol
 _atom_site_label
 _atom_site_symmetry_multiplicity
 _atom_site_fract_x
 _atom_site_fract_y
 _atom_site_fract_z
 _atom_site_occupancy
  Mo  Mo0  1  1.98109000  2.30554000  0.30664200  1
  Mo  Mo1  1  1.98460000  0.57765200  2.01988000  1
  Mo  Mo2  1  -0.09841010  2.32537000  2.03748000  1
  Mo  Mo3  1  4.04894000  7.51975000  3.73391000  1
  Mo  Mo4  1  4.05126000  2.31913000  2.03611000  1
  Mo  Mo5  1  -0.10181000  4.05371000  3.76038000  1
  Mo  Mo6  1  1.97247000  5.77645000  0.29783200  1
  Mo  Mo7  1  1.97290000  4.04722000  2.02251000  1
  Mo  Mo8  1  -0.10739700  5.78834000  2.03374000  1
  Mo  Mo9  1  4.04555000  4.05786000  0.28609500  1
  Mo  Mo10  1  4.04617000  5.79482000  2.02274000  1
  Mo  Mo11  1  8.20263000  7.52763000  3.74141000  1
  Mo  Mo12  1  6.12248000  2.30378000  0.30590300  1
  Mo  Mo13  1  6.14118000  0.57943800  2.01809000  1
  Mo  Mo14  1  6.12383000  5.77948000  0.29099300  1
  Mo  Mo15  1  6.11753000  4.04383000  2.01976000  1
