# generated using pymatgen
data_Mo
_symmetry_space_group_name_H-M   'P 1'
_cell_length_a   8.06408938
_cell_length_b   7.00486785
_cell_length_c   3.50318646
_cell_angle_alpha   90.00000000
_cell_angle_beta   90.00000000
_cell_angle_gamma   90.00000000
_symmetry_Int_Tables_number   1
_chemical_formula_structural   Mo
_chemical_formula_sum   Mo16
_cell_volume   197.88757811
_cell_formula_units_Z   16
loop_
 _symmetry_equiv_pos_site_id
 _symmetry_equiv_pos_as_xyz
  1  'x, y, z'
loop_
 _atom_site_type_symbol
 _atom_site_label
 _atom_site_symmetry_multiplicity
 _atom_site_fract_x
 _atom_site_fract_y
 _atom_site_fract_z
 _atom_site_occupancy
  Mo  Mo0  1  0.00835082  7.55866000  3.77570000  1
  Mo  Mo1  1  2.03207000  2.29248000  0.27085500  1
  Mo  Mo2  1  2.01359000  0.54503200  2.02667000  1
  Mo  Mo3  1  0.00846142  2.30084000  2.02248000  1
  Mo  Mo4  1  4.03900000  7.55503000  3.77595000  1
  Mo  Mo5  1  6.06902000  2.29126000  0.27317200  1
  Mo  Mo6  1  6.05953000  0.54438200  2.02776000  1
  Mo  Mo7  1  4.04684000  2.29783000  2.02786000  1
  Mo  Mo8  1  8.08560000  4.05638000  0.26971400  1
  Mo  Mo9  1  2.04043000  5.79944000  0.27151300  1
  Mo  Mo10  1  2.04143000  4.04719000  2.03205000  1
  Mo  Mo11  1  0.01660320  5.80156000  2.02216000  1
  Mo  Mo12  1  4.05704000  4.05706000  0.26998700  1
  Mo  Mo13  1  6.07957000  5.80381000  3.77386000  1
  Mo  Mo14  1  6.07799000  4.04248000  2.03326000  1
  Mo  Mo15  1  4.06040000  5.80658000  2.02380000  1
