# generated using pymatgen
data_Mo
_symmetry_space_group_name_H-M   'P 1'
_cell_length_a   7.74531038
_cell_length_b   7.10384107
_cell_length_c   3.55339503
_cell_angle_alpha   90.00000000
_cell_angle_beta   90.00000000
_cell_angle_gamma   90.00000000
_symmetry_Int_Tables_number   1
_chemical_formula_structural   Mo
_chemical_formula_sum   Mo16
_cell_volume   195.51296119
_cell_formula_units_Z   16
loop_
 _symmetry_equiv_pos_site_id
 _symmetry_equiv_pos_as_xyz
  1  'x, y, z'
loop_
 _atom_site_type_symbol
 _atom_site_label
 _atom_site_symmetry_multiplicity
 _atom_site_fract_x
 _atom_site_fract_y
 _atom_site_fract_z
 _atom_site_occupancy
  Mo  Mo0  1  0.18211500  7.59698000  3.81600000  1
  Mo  Mo1  1  2.11569000  2.28432000  0.23934300  1
  Mo  Mo2  1  2.11910000  0.50206000  2.03091000  1
  Mo  Mo3  1  0.17676400  2.27450000  2.01610000  1
  Mo  Mo4  1  4.06537000  7.59550000  3.81300000  1
  Mo  Mo5  1  5.99238000  2.28674000  0.24048500  1
  Mo  Mo6  1  5.99438000  0.50187100  2.02853000  1
  Mo  Mo7  1  4.04929000  2.26513000  2.01679000  1
  Mo  Mo8  1  7.90478000  4.04107000  0.24987800  1
  Mo  Mo9  1  2.09968000  5.82559000  0.25139600  1
  Mo  Mo10  1  2.11060000  4.05970000  2.01863000  1
  Mo  Mo11  1  0.17183600  5.81427000  2.02738000  1
  Mo  Mo12  1  4.04535000  4.04252000  0.24710100  1
  Mo  Mo13  1  5.99124000  5.83072000  3.80605000  1
  Mo  Mo14  1  5.99205000  4.05405000  2.01637000  1
  Mo  Mo15  1  4.04406000  5.82498000  2.02864000  1
