# generated using pymatgen
data_Mo
_symmetry_space_group_name_H-M   'P 1'
_cell_length_a   8.04807742
_cell_length_b   7.00996822
_cell_length_c   3.50552964
_cell_angle_alpha   90.00000000
_cell_angle_beta   90.00000000
_cell_angle_gamma   90.00000000
_symmetry_Int_Tables_number   1
_chemical_formula_structural   Mo
_chemical_formula_sum   Mo16
_cell_volume   197.77064877
_cell_formula_units_Z   16
loop_
 _symmetry_equiv_pos_site_id
 _symmetry_equiv_pos_as_xyz
  1  'x, y, z'
loop_
 _atom_site_type_symbol
 _atom_site_label
 _atom_site_symmetry_multiplicity
 _atom_site_fract_x
 _atom_site_fract_y
 _atom_site_fract_z
 _atom_site_occupancy
  Mo  Mo0  1  0.03378550  7.54985000  3.79053000  1
  Mo  Mo1  1  2.03855000  2.30236000  0.25943200  1
  Mo  Mo2  1  2.04797000  0.55524000  2.02797000  1
  Mo  Mo3  1  0.03084140  2.28404000  2.01681000  1
  Mo  Mo4  1  4.06655000  7.55183000  3.78917000  1
  Mo  Mo5  1  6.07056000  2.31267000  0.26421800  1
  Mo  Mo6  1  6.06453000  0.54512900  2.02681000  1
  Mo  Mo7  1  4.04731000  2.29953000  2.02508000  1
  Mo  Mo8  1  8.06180000  4.04535000  0.27485800  1
  Mo  Mo9  1  2.03635000  5.80486000  0.26529700  1
  Mo  Mo10  1  2.03916000  4.05742000  2.03296000  1
  Mo  Mo11  1  0.02628370  5.79876000  2.02042000  1
  Mo  Mo12  1  4.03922000  4.04246000  0.27366800  1
  Mo  Mo13  1  6.05282000  5.80685000  3.77228000  1
  Mo  Mo14  1  6.05725000  4.05671000  2.03126000  1
  Mo  Mo15  1  4.03896000  5.78696000  2.02372000  1
