# generated using pymatgen
data_Mo
_symmetry_space_group_name_H-M   'P 1'
_cell_length_a   8.22420708
_cell_length_b   6.95822567
_cell_length_c   3.47859383
_cell_angle_alpha   90.00000000
_cell_angle_beta   90.00000000
_cell_angle_gamma   90.00000000
_symmetry_Int_Tables_number   1
_chemical_formula_structural   Mo
_chemical_formula_sum   Mo16
_cell_volume   199.06562341
_cell_formula_units_Z   16
loop_
 _symmetry_equiv_pos_site_id
 _symmetry_equiv_pos_as_xyz
  1  'x, y, z'
loop_
 _atom_site_type_symbol
 _atom_site_label
 _atom_site_symmetry_multiplicity
 _atom_site_fract_x
 _atom_site_fract_y
 _atom_site_fract_z
 _atom_site_occupancy
  Mo  Mo0  1  1.99743000  2.31331000  0.29175000  1
  Mo  Mo1  1  1.99771000  0.57259800  2.01691000  1
  Mo  Mo2  1  -0.06007390  2.30818000  2.03235000  1
  Mo  Mo3  1  4.04730000  7.51970000  3.75950000  1
  Mo  Mo4  1  4.05253000  2.30387000  2.02817000  1
  Mo  Mo5  1  -0.06775170  4.03847000  3.75907000  1
  Mo  Mo6  1  1.99078000  5.79238000  0.29904200  1
  Mo  Mo7  1  1.99840000  4.05585000  2.02062000  1
  Mo  Mo8  1  -0.06989820  5.79157000  2.03954000  1
  Mo  Mo9  1  4.04117000  4.04861000  0.27359800  1
  Mo  Mo10  1  4.05096000  5.79159000  2.02272000  1
  Mo  Mo11  1  8.16794000  7.52876000  3.76624000  1
  Mo  Mo12  1  6.10467000  2.30765000  0.29185400  1
  Mo  Mo13  1  6.12436000  0.57744300  2.01358000  1
  Mo  Mo14  1  6.10171000  5.79305000  0.29076600  1
  Mo  Mo15  1  6.09856000  4.05696000  2.01570000  1
