# generated using pymatgen
data_Mo
_symmetry_space_group_name_H-M   'P 1'
_cell_length_a   8.40761404
_cell_length_b   6.89939350
_cell_length_c   3.45304513
_cell_angle_alpha   90.00000000
_cell_angle_beta   90.00000000
_cell_angle_gamma   90.00000000
_symmetry_Int_Tables_number   1
_chemical_formula_structural   Mo
_chemical_formula_sum   Mo16
_cell_volume   200.30230000
_cell_formula_units_Z   16
loop_
 _symmetry_equiv_pos_site_id
 _symmetry_equiv_pos_as_xyz
  1  'x, y, z'
loop_
 _atom_site_type_symbol
 _atom_site_label
 _atom_site_symmetry_multiplicity
 _atom_site_fract_x
 _atom_site_fract_y
 _atom_site_fract_z
 _atom_site_occupancy
  Mo  Mo0  1  1.94752000  2.31254000  0.29962900  1
  Mo  Mo1  1  1.95939000  0.60034800  2.03240000  1
  Mo  Mo2  1  -0.15220700  2.32596000  2.02308000  1
  Mo  Mo3  1  4.05464000  7.50177000  3.74139000  1
  Mo  Mo4  1  4.05414000  2.33299000  2.02560000  1
  Mo  Mo5  1  -0.15872200  4.05362000  3.74837000  1
  Mo  Mo6  1  1.94500000  5.76745000  0.30404800  1
  Mo  Mo7  1  1.93955000  4.04839000  2.01930000  1
  Mo  Mo8  1  -0.16164400  5.78835000  2.03045000  1
  Mo  Mo9  1  4.04529000  4.05419000  0.29041500  1
  Mo  Mo10  1  4.04400000  5.78246000  2.03166000  1
  Mo  Mo11  1  8.25504000  7.50592000  3.74701000  1
  Mo  Mo12  1  6.15695000  2.31938000  0.30185300  1
  Mo  Mo13  1  6.17133000  0.59183100  2.02997000  1
  Mo  Mo14  1  6.14878000  5.77122000  0.30512700  1
  Mo  Mo15  1  6.14333000  4.04359000  2.01665000  1
