# generated using pymatgen
data_Mo
_symmetry_space_group_name_H-M   'P 1'
_cell_length_a   8.41780321
_cell_length_b   6.89445639
_cell_length_c   3.45256257
_cell_angle_alpha   90.00000000
_cell_angle_beta   90.00000000
_cell_angle_gamma   90.00000000
_symmetry_Int_Tables_number   1
_chemical_formula_structural   Mo
_chemical_formula_sum   Mo16
_cell_volume   200.37353287
_cell_formula_units_Z   16
loop_
 _symmetry_equiv_pos_site_id
 _symmetry_equiv_pos_as_xyz
  1  'x, y, z'
loop_
 _atom_site_type_symbol
 _atom_site_label
 _atom_site_symmetry_multiplicity
 _atom_site_fract_x
 _atom_site_fract_y
 _atom_site_fract_z
 _atom_site_occupancy
  Mo  Mo0  1  1.94442000  2.33544000  0.30636200  1
  Mo  Mo1  1  1.95127000  0.60647400  2.01571000  1
  Mo  Mo2  1  -0.16040300  2.32287000  2.03806000  1
  Mo  Mo3  1  4.05761000  7.49595000  3.75030000  1
  Mo  Mo4  1  4.05929000  2.32239000  2.02174000  1
  Mo  Mo5  1  -0.16237500  4.05075000  3.75980000  1
  Mo  Mo6  1  1.94002000  5.78494000  0.29379500  1
  Mo  Mo7  1  1.93850000  4.05006000  2.03160000  1
  Mo  Mo8  1  -0.15886700  5.76433000  2.02195000  1
  Mo  Mo9  1  4.03745000  4.04165000  0.30278800  1
  Mo  Mo10  1  4.05292000  5.76013000  2.01463000  1
  Mo  Mo11  1  8.27010000  7.48605000  3.75495000  1
  Mo  Mo12  1  6.15338000  2.33263000  0.29839900  1
  Mo  Mo13  1  6.15035000  0.61090600  2.01423000  1
  Mo  Mo14  1  6.14432000  5.77688000  0.29181800  1
  Mo  Mo15  1  6.16420000  4.05856000  2.03132000  1
