# generated using pymatgen
data_Mo
_symmetry_space_group_name_H-M   'P 1'
_cell_length_a   8.22566254
_cell_length_b   6.95863968
_cell_length_c   3.47798991
_cell_angle_alpha   90.00000000
_cell_angle_beta   90.00000000
_cell_angle_gamma   90.00000000
_symmetry_Int_Tables_number   1
_chemical_formula_structural   Mo
_chemical_formula_sum   Mo16
_cell_volume   199.07813136
_cell_formula_units_Z   16
loop_
 _symmetry_equiv_pos_site_id
 _symmetry_equiv_pos_as_xyz
  1  'x, y, z'
loop_
 _atom_site_type_symbol
 _atom_site_label
 _atom_site_symmetry_multiplicity
 _atom_site_fract_x
 _atom_site_fract_y
 _atom_site_fract_z
 _atom_site_occupancy
  Mo  Mo0  1  1.99923000  2.31696000  0.29593100  1
  Mo  Mo1  1  2.00133000  0.57256100  2.01408000  1
  Mo  Mo2  1  -0.05705730  2.30642000  2.03597000  1
  Mo  Mo3  1  4.04856000  7.51857000  3.75633000  1
  Mo  Mo4  1  4.05283000  2.30297000  2.02974000  1
  Mo  Mo5  1  -0.06790350  4.03647000  3.76133000  1
  Mo  Mo6  1  1.99165000  5.79490000  0.29898300  1
  Mo  Mo7  1  1.99365000  4.05602000  2.01763000  1
  Mo  Mo8  1  -0.06864370  5.79107000  2.03994000  1
  Mo  Mo9  1  4.04152000  4.04603000  0.27756800  1
  Mo  Mo10  1  4.04797000  5.78968000  2.02252000  1
  Mo  Mo11  1  8.16893000  7.52640000  3.76198000  1
  Mo  Mo12  1  6.10586000  2.31017000  0.29453700  1
  Mo  Mo13  1  6.12318000  0.57897700  2.01159000  1
  Mo  Mo14  1  6.10137000  5.79294000  0.29022000  1
  Mo  Mo15  1  6.09187000  4.05986000  2.01365000  1
