# generated using pymatgen
data_Mo
_symmetry_space_group_name_H-M   'P 1'
_cell_length_a   7.43526509
_cell_length_b   7.21507677
_cell_length_c   3.60730934
_cell_angle_alpha   90.00000000
_cell_angle_beta   90.00000000
_cell_angle_gamma   90.00000000
_symmetry_Int_Tables_number   1
_chemical_formula_structural   Mo
_chemical_formula_sum   Mo16
_cell_volume   193.51774756
_cell_formula_units_Z   16
loop_
 _symmetry_equiv_pos_site_id
 _symmetry_equiv_pos_as_xyz
  1  'x, y, z'
loop_
 _atom_site_type_symbol
 _atom_site_label
 _atom_site_symmetry_multiplicity
 _atom_site_fract_x
 _atom_site_fract_y
 _atom_site_fract_z
 _atom_site_occupancy
  Mo  Mo0  1  0.33325300  7.64475000  3.81998000  1
  Mo  Mo1  1  2.19089000  2.25183000  0.24020600  1
  Mo  Mo2  1  2.19557000  0.45241600  2.01197000  1
  Mo  Mo3  1  0.33668300  2.23979000  2.04636000  1
  Mo  Mo4  1  4.06820000  7.64868000  3.81304000  1
  Mo  Mo5  1  5.93097000  2.25266000  0.23103600  1
  Mo  Mo6  1  5.91457000  0.45164600  2.00786000  1
  Mo  Mo7  1  4.05323000  2.25264000  2.02851000  1
  Mo  Mo8  1  7.74806000  4.04377000  0.22863300  1
  Mo  Mo9  1  2.18978000  5.86176000  0.22391500  1
  Mo  Mo10  1  2.17934000  4.05223000  2.01828000  1
  Mo  Mo11  1  0.32988300  5.85422000  2.02937000  1
  Mo  Mo12  1  4.04044000  4.04001000  0.22166700  1
  Mo  Mo13  1  5.90958000  5.85521000  3.83122000  1
  Mo  Mo14  1  5.90223000  4.06128000  2.01543000  1
  Mo  Mo15  1  4.04208000  5.83712000  2.02520000  1
