# generated using pymatgen
data_Mo
_symmetry_space_group_name_H-M   'P 1'
_cell_length_a   8.55463070
_cell_length_b   6.87719560
_cell_length_c   3.42256427
_cell_angle_alpha   90.00000000
_cell_angle_beta   90.00000000
_cell_angle_gamma   90.00000000
_symmetry_Int_Tables_number   1
_chemical_formula_structural   Mo
_chemical_formula_sum   Mo16
_cell_volume   201.35585116
_cell_formula_units_Z   16
loop_
 _symmetry_equiv_pos_site_id
 _symmetry_equiv_pos_as_xyz
  1  'x, y, z'
loop_
 _atom_site_type_symbol
 _atom_site_label
 _atom_site_symmetry_multiplicity
 _atom_site_fract_x
 _atom_site_fract_y
 _atom_site_fract_z
 _atom_site_occupancy
  Mo  Mo0  1  1.91070000  2.32464000  0.30211500  1
  Mo  Mo1  1  1.92003000  0.60930300  2.03451000  1
  Mo  Mo2  1  -0.22745600  2.32982000  2.00398000  1
  Mo  Mo3  1  4.04643000  7.49917000  3.74897000  1
  Mo  Mo4  1  4.04313000  2.34246000  2.02181000  1
  Mo  Mo5  1  -0.22303500  4.06138000  3.73244000  1
  Mo  Mo6  1  1.92424000  5.76007000  0.31541100  1
  Mo  Mo7  1  1.91039000  4.04412000  2.02929000  1
  Mo  Mo8  1  -0.22346300  5.77394000  2.01869000  1
  Mo  Mo9  1  4.05353000  4.05621000  0.31397300  1
  Mo  Mo10  1  4.04037000  5.76539000  2.02372000  1
  Mo  Mo11  1  8.31592000  7.49481000  3.74466000  1
  Mo  Mo12  1  6.19413000  2.33397000  0.30999200  1
  Mo  Mo13  1  6.18349000  0.60004900  2.03475000  1
  Mo  Mo14  1  6.19165000  5.76312000  0.31509900  1
  Mo  Mo15  1  6.18531000  4.04154000  2.02803000  1
