# generated using pymatgen
data_Mo
_symmetry_space_group_name_H-M   'P 1'
_cell_length_a   8.10047968
_cell_length_b   6.99462372
_cell_length_c   3.49742556
_cell_angle_alpha   90.00000000
_cell_angle_beta   90.00000000
_cell_angle_gamma   90.00000000
_symmetry_Int_Tables_number   1
_chemical_formula_structural   Mo
_chemical_formula_sum   Mo16
_cell_volume   198.16345804
_cell_formula_units_Z   16
loop_
 _symmetry_equiv_pos_site_id
 _symmetry_equiv_pos_as_xyz
  1  'x, y, z'
loop_
 _atom_site_type_symbol
 _atom_site_label
 _atom_site_symmetry_multiplicity
 _atom_site_fract_x
 _atom_site_fract_y
 _atom_site_fract_z
 _atom_site_occupancy
  Mo  Mo0  1  -0.01603040  7.53760000  3.76092000  1
  Mo  Mo1  1  2.02417000  2.31104000  0.27762500  1
  Mo  Mo2  1  2.02463000  0.55647100  2.02254000  1
  Mo  Mo3  1  -0.00138907  2.30393000  2.03162000  1
  Mo  Mo4  1  4.03797000  7.54278000  3.76865000  1
  Mo  Mo5  1  6.07116000  2.30282000  0.27826200  1
  Mo  Mo6  1  6.06195000  0.56448000  2.02690000  1
  Mo  Mo7  1  4.03825000  2.29643000  2.03309000  1
  Mo  Mo8  1  8.11137000  4.04568000  0.28064500  1
  Mo  Mo9  1  2.03359000  5.80444000  0.26897100  1
  Mo  Mo10  1  2.03122000  4.05503000  2.02229000  1
  Mo  Mo11  1  0.00713656  5.78676000  2.02711000  1
  Mo  Mo12  1  4.06719000  4.04362000  0.28785300  1
  Mo  Mo13  1  6.08528000  5.79908000  3.76511000  1
  Mo  Mo14  1  6.07728000  4.05831000  2.02595000  1
  Mo  Mo15  1  4.04576000  5.79154000  2.02504000  1
