# generated using pymatgen
data_Mo
_symmetry_space_group_name_H-M   'P 1'
_cell_length_a   8.30280951
_cell_length_b   6.93331838
_cell_length_c   3.46733022
_cell_angle_alpha   90.00000000
_cell_angle_beta   90.00000000
_cell_angle_gamma   90.00000000
_symmetry_Int_Tables_number   1
_chemical_formula_structural   Mo
_chemical_formula_sum   Mo16
_cell_volume   199.60040681
_cell_formula_units_Z   16
loop_
 _symmetry_equiv_pos_site_id
 _symmetry_equiv_pos_as_xyz
  1  'x, y, z'
loop_
 _atom_site_type_symbol
 _atom_site_label
 _atom_site_symmetry_multiplicity
 _atom_site_fract_x
 _atom_site_fract_y
 _atom_site_fract_z
 _atom_site_occupancy
  Mo  Mo0  1  1.98088000  2.31177000  0.29304100  1
  Mo  Mo1  1  1.99006000  0.58673900  2.02641000  1
  Mo  Mo2  1  -0.09813230  2.31612000  2.02272000  1
  Mo  Mo3  1  4.05750000  7.51464000  3.75316000  1
  Mo  Mo4  1  4.05850000  2.31286000  2.02326000  1
  Mo  Mo5  1  -0.10582000  4.05222000  3.76778000  1
  Mo  Mo6  1  1.96633000  5.78806000  0.29475800  1
  Mo  Mo7  1  1.97014000  4.05125000  2.02644000  1
  Mo  Mo8  1  -0.10358600  5.78029000  2.02727000  1
  Mo  Mo9  1  4.03076000  4.04764000  0.28867600  1
  Mo  Mo10  1  4.04812000  5.78447000  2.01746000  1
  Mo  Mo11  1  8.22162000  7.51411000  3.76481000  1
  Mo  Mo12  1  6.11634000  2.31934000  0.29489600  1
  Mo  Mo13  1  6.12970000  0.58101800  2.02150000  1
  Mo  Mo14  1  6.10943000  5.79309000  0.29029500  1
  Mo  Mo15  1  6.12535000  4.04637000  2.02019000  1
