# generated using pymatgen
data_Mo
_symmetry_space_group_name_H-M   'P 1'
_cell_length_a   8.65797880
_cell_length_b   6.83747226
_cell_length_c   3.41562533
_cell_angle_alpha   90.00000000
_cell_angle_beta   90.00000000
_cell_angle_gamma   90.00000000
_symmetry_Int_Tables_number   1
_chemical_formula_structural   Mo
_chemical_formula_sum   Mo16
_cell_volume   202.20054492
_cell_formula_units_Z   16
loop_
 _symmetry_equiv_pos_site_id
 _symmetry_equiv_pos_as_xyz
  1  'x, y, z'
loop_
 _atom_site_type_symbol
 _atom_site_label
 _atom_site_symmetry_multiplicity
 _atom_site_fract_x
 _atom_site_fract_y
 _atom_site_fract_z
 _atom_site_occupancy
  Mo  Mo0  1  1.89284000  2.33956000  0.32685400  1
  Mo  Mo1  1  1.89538000  0.64008400  2.00908000  1
  Mo  Mo2  1  -0.26796600  2.33262000  2.03322000  1
  Mo  Mo3  1  4.06125000  7.46235000  3.72395000  1
  Mo  Mo4  1  4.05314000  2.34413000  2.03868000  1
  Mo  Mo5  1  -0.28110300  4.04621000  3.73411000  1
  Mo  Mo6  1  1.89006000  5.76022000  0.32329100  1
  Mo  Mo7  1  1.86842000  4.05707000  2.02588000  1
  Mo  Mo8  1  -0.27505600  5.75993000  2.02893000  1
  Mo  Mo9  1  4.04518000  4.04468000  0.31125900  1
  Mo  Mo10  1  4.04011000  5.75127000  2.02240000  1
  Mo  Mo11  1  8.38471000  7.46396000  3.73149000  1
  Mo  Mo12  1  6.22443000  2.34767000  0.32935600  1
  Mo  Mo13  1  6.21176000  0.63134000  2.00646000  1
  Mo  Mo14  1  6.20939000  5.76395000  0.31790200  1
  Mo  Mo15  1  6.18949000  4.05494000  2.02151000  1
