# generated using pymatgen
data_Mo
_symmetry_space_group_name_H-M   'P 1'
_cell_length_a   7.43089825
_cell_length_b   7.21510443
_cell_length_c   3.60914636
_cell_angle_alpha   90.00000000
_cell_angle_beta   90.00000000
_cell_angle_gamma   90.00000000
_symmetry_Int_Tables_number   1
_chemical_formula_structural   Mo
_chemical_formula_sum   Mo16
_cell_volume   193.50332401
_cell_formula_units_Z   16
loop_
 _symmetry_equiv_pos_site_id
 _symmetry_equiv_pos_as_xyz
  1  'x, y, z'
loop_
 _atom_site_type_symbol
 _atom_site_label
 _atom_site_symmetry_multiplicity
 _atom_site_fract_x
 _atom_site_fract_y
 _atom_site_fract_z
 _atom_site_occupancy
  Mo  Mo0  1  0.33063200  7.65186000  3.83142000  1
  Mo  Mo1  1  2.18695000  2.24579000  0.22822500  1
  Mo  Mo2  1  2.20596000  0.45087100  2.01832000  1
  Mo  Mo3  1  0.33741000  2.24097000  2.03544000  1
  Mo  Mo4  1  4.05963000  7.65510000  3.82124000  1
  Mo  Mo5  1  5.92153000  2.25536000  0.22458600  1
  Mo  Mo6  1  5.92117000  0.44141100  2.01267000  1
  Mo  Mo7  1  4.05805000  2.25421000  2.02726000  1
  Mo  Mo8  1  7.75432000  4.05135000  0.22863900  1
  Mo  Mo9  1  2.18767000  5.85354000  0.21549200  1
  Mo  Mo10  1  2.17773000  4.05163000  2.03633000  1
  Mo  Mo11  1  0.33050100  5.85566000  2.01911000  1
  Mo  Mo12  1  4.04349000  4.04440000  0.21852100  1
  Mo  Mo13  1  5.90471000  5.85342000  3.82518000  1
  Mo  Mo14  1  5.90489000  4.05280000  2.03123000  1
  Mo  Mo15  1  4.04446000  5.84164000  2.01719000  1
