# generated using pymatgen
data_Mo
_symmetry_space_group_name_H-M   'P 1'
_cell_length_a   8.57500903
_cell_length_b   6.84364939
_cell_length_c   3.43370605
_cell_angle_alpha   90.00000000
_cell_angle_beta   90.00000000
_cell_angle_gamma   90.00000000
_symmetry_Int_Tables_number   1
_chemical_formula_structural   Mo
_chemical_formula_sum   Mo16
_cell_volume   201.50482560
_cell_formula_units_Z   16
loop_
 _symmetry_equiv_pos_site_id
 _symmetry_equiv_pos_as_xyz
  1  'x, y, z'
loop_
 _atom_site_type_symbol
 _atom_site_label
 _atom_site_symmetry_multiplicity
 _atom_site_fract_x
 _atom_site_fract_y
 _atom_site_fract_z
 _atom_site_occupancy
  Mo  Mo0  1  1.91478000  2.33937000  0.30580100  1
  Mo  Mo1  1  1.91096000  0.62784100  2.03079000  1
  Mo  Mo2  1  -0.23220500  2.33625000  2.02286000  1
  Mo  Mo3  1  4.04126000  7.46927000  3.73866000  1
  Mo  Mo4  1  4.04681000  2.33558000  2.01860000  1
  Mo  Mo5  1  -0.23652400  4.04880000  3.75290000  1
  Mo  Mo6  1  1.91118000  5.75576000  0.30575200  1
  Mo  Mo7  1  1.91024000  4.05464000  2.02520000  1
  Mo  Mo8  1  -0.24129300  5.76038000  2.02504000  1
  Mo  Mo9  1  4.04827000  4.05480000  0.30744700  1
  Mo  Mo10  1  4.04586000  5.76027000  2.02110000  1
  Mo  Mo11  1  8.33703000  7.48117000  3.74987000  1
  Mo  Mo12  1  6.19239000  2.34316000  0.30608400  1
  Mo  Mo13  1  6.20330000  0.62271500  2.02748000  1
  Mo  Mo14  1  6.19582000  5.76356000  0.30683100  1
  Mo  Mo15  1  6.17712000  4.04644000  2.02188000  1
