# generated using pymatgen
data_Mo
_symmetry_space_group_name_H-M   'P 1'
_cell_length_a   7.51241255
_cell_length_b   7.18565017
_cell_length_c   3.59332013
_cell_angle_alpha   90.00000000
_cell_angle_beta   90.00000000
_cell_angle_gamma   90.00000000
_symmetry_Int_Tables_number   1
_chemical_formula_structural   Mo
_chemical_formula_sum   Mo16
_cell_volume   193.97305682
_cell_formula_units_Z   16
loop_
 _symmetry_equiv_pos_site_id
 _symmetry_equiv_pos_as_xyz
  1  'x, y, z'
loop_
 _atom_site_type_symbol
 _atom_site_label
 _atom_site_symmetry_multiplicity
 _atom_site_fract_x
 _atom_site_fract_y
 _atom_site_fract_z
 _atom_site_occupancy
  Mo  Mo0  1  0.30338500  7.63715000  3.82123000  1
  Mo  Mo1  1  2.18153000  2.26056000  0.23957400  1
  Mo  Mo2  1  2.18062000  0.46190100  2.01409000  1
  Mo  Mo3  1  0.29723300  2.25394000  2.03686000  1
  Mo  Mo4  1  4.05240000  7.63235000  3.81287000  1
  Mo  Mo5  1  5.92807000  2.25940000  0.23503900  1
  Mo  Mo6  1  5.94239000  0.46533500  2.01094000  1
  Mo  Mo7  1  4.05917000  2.24537000  2.02838000  1
  Mo  Mo8  1  7.79830000  4.03958000  0.23526300  1
  Mo  Mo9  1  2.16572000  5.85011000  0.23181500  1
  Mo  Mo10  1  2.16064000  4.05920000  2.02331000  1
  Mo  Mo11  1  0.28595300  5.83790000  2.02903000  1
  Mo  Mo12  1  4.03754000  4.04185000  0.22677000  1
  Mo  Mo13  1  5.92550000  5.85260000  3.82062000  1
  Mo  Mo14  1  5.91946000  4.05713000  2.02017000  1
  Mo  Mo15  1  4.04966000  5.84561000  2.02071000  1
