# generated using pymatgen
data_Mo
_symmetry_space_group_name_H-M   'P 1'
_cell_length_a   7.68563035
_cell_length_b   7.12546578
_cell_length_c   3.56250739
_cell_angle_alpha   90.00000000
_cell_angle_beta   90.00000000
_cell_angle_gamma   90.00000000
_symmetry_Int_Tables_number   1
_chemical_formula_structural   Mo
_chemical_formula_sum   Mo16
_cell_volume   195.09607201
_cell_formula_units_Z   16
loop_
 _symmetry_equiv_pos_site_id
 _symmetry_equiv_pos_as_xyz
  1  'x, y, z'
loop_
 _atom_site_type_symbol
 _atom_site_label
 _atom_site_symmetry_multiplicity
 _atom_site_fract_x
 _atom_site_fract_y
 _atom_site_fract_z
 _atom_site_occupancy
  Mo  Mo0  1  0.19798700  7.61788000  3.80155000  1
  Mo  Mo1  1  2.12223000  2.27867000  0.24555200  1
  Mo  Mo2  1  2.10698000  0.47797800  2.03050000  1
  Mo  Mo3  1  0.20517500  2.27075000  2.01994000  1
  Mo  Mo4  1  4.04983000  7.61507000  3.81084000  1
  Mo  Mo5  1  5.97465000  2.26797000  0.24175400  1
  Mo  Mo6  1  5.96231000  0.48604700  2.03461000  1
  Mo  Mo7  1  4.04101000  2.26677000  2.01479000  1
  Mo  Mo8  1  7.89441000  4.04892000  0.25532700  1
  Mo  Mo9  1  2.13005000  5.83093000  0.23195500  1
  Mo  Mo10  1  2.13862000  4.04479000  2.02899000  1
  Mo  Mo11  1  0.21141600  5.83061000  2.00761000  1
  Mo  Mo12  1  4.06687000  4.05568000  0.26486100  1
  Mo  Mo13  1  5.98369000  5.82705000  3.79930000  1
  Mo  Mo14  1  5.97419000  4.04883000  2.03423000  1
  Mo  Mo15  1  4.05494000  5.83204000  2.01568000  1
