# generated using pymatgen
data_Mo
_symmetry_space_group_name_H-M   'P 1'
_cell_length_a   8.70164737
_cell_length_b   6.84062123
_cell_length_c   3.40323281
_cell_angle_alpha   90.00000000
_cell_angle_beta   90.00000000
_cell_angle_gamma   90.00000000
_symmetry_Int_Tables_number   1
_chemical_formula_structural   Mo
_chemical_formula_sum   Mo16
_cell_volume   202.57632294
_cell_formula_units_Z   16
loop_
 _symmetry_equiv_pos_site_id
 _symmetry_equiv_pos_as_xyz
  1  'x, y, z'
loop_
 _atom_site_type_symbol
 _atom_site_label
 _atom_site_symmetry_multiplicity
 _atom_site_fract_x
 _atom_site_fract_y
 _atom_site_fract_z
 _atom_site_occupancy
  Mo  Mo0  1  1.88252000  2.33996000  0.32754100  1
  Mo  Mo1  1  1.88448000  0.63875100  2.01866000  1
  Mo  Mo2  1  -0.30295400  2.33238000  2.02853000  1
  Mo  Mo3  1  4.06160000  7.46631000  3.72937000  1
  Mo  Mo4  1  4.05910000  2.33742000  2.02499000  1
  Mo  Mo5  1  -0.31098700  4.04576000  3.71720000  1
  Mo  Mo6  1  1.87976000  5.76438000  0.33445000  1
  Mo  Mo7  1  1.85013000  4.05614000  2.01500000  1
  Mo  Mo8  1  -0.30981400  5.76076000  2.03051000  1
  Mo  Mo9  1  4.03399000  4.03875000  0.30908500  1
  Mo  Mo10  1  4.04345000  5.75952000  2.03930000  1
  Mo  Mo11  1  8.40749000  7.46171000  3.73407000  1
  Mo  Mo12  1  6.24412000  2.34811000  0.32303300  1
  Mo  Mo13  1  6.22801000  0.63088900  2.01448000  1
  Mo  Mo14  1  6.22754000  5.76675000  0.33772000  1
  Mo  Mo15  1  6.21992000  4.05241000  2.01283000  1
