# generated using pymatgen
data_Mo
_symmetry_space_group_name_H-M   'P 1'
_cell_length_a   7.32609421
_cell_length_b   7.25794181
_cell_length_c   3.62910533
_cell_angle_alpha   90.00000000
_cell_angle_beta   90.00000000
_cell_angle_gamma   90.00000000
_symmetry_Int_Tables_number   1
_chemical_formula_structural   Mo
_chemical_formula_sum   Mo16
_cell_volume   192.96811498
_cell_formula_units_Z   16
loop_
 _symmetry_equiv_pos_site_id
 _symmetry_equiv_pos_as_xyz
  1  'x, y, z'
loop_
 _atom_site_type_symbol
 _atom_site_label
 _atom_site_symmetry_multiplicity
 _atom_site_fract_x
 _atom_site_fract_y
 _atom_site_fract_z
 _atom_site_occupancy
  Mo  Mo0  1  0.39845000  7.67255000  3.82849000  1
  Mo  Mo1  1  2.22472000  2.23759000  0.21989500  1
  Mo  Mo2  1  2.22201000  0.42228200  2.02567000  1
  Mo  Mo3  1  0.38644600  2.23109000  2.03866000  1
  Mo  Mo4  1  4.05651000  7.67991000  3.82695000  1
  Mo  Mo5  1  5.88205000  2.23502000  0.21132400  1
  Mo  Mo6  1  5.87276000  0.42755900  2.02506000  1
  Mo  Mo7  1  4.05870000  2.23079000  2.02310000  1
  Mo  Mo8  1  7.71036000  4.04880000  0.21424600  1
  Mo  Mo9  1  2.21899000  5.87068000  0.20880100  1
  Mo  Mo10  1  2.20936000  4.04949000  2.02167000  1
  Mo  Mo11  1  0.38837200  5.86724000  2.02930000  1
  Mo  Mo12  1  4.03453000  4.04380000  0.21262700  1
  Mo  Mo13  1  5.87479000  5.86057000  3.83735000  1
  Mo  Mo14  1  5.88455000  4.05922000  2.02212000  1
  Mo  Mo15  1  4.05130000  5.86342000  2.02564000  1
