# generated using pymatgen
data_Mo
_symmetry_space_group_name_H-M   'P 1'
_cell_length_a   8.49058381
_cell_length_b   6.88794935
_cell_length_c   3.43516994
_cell_angle_alpha   90.00000000
_cell_angle_beta   90.00000000
_cell_angle_gamma   90.00000000
_symmetry_Int_Tables_number   1
_chemical_formula_structural   Mo
_chemical_formula_sum   Mo16
_cell_volume   200.89805123
_cell_formula_units_Z   16
loop_
 _symmetry_equiv_pos_site_id
 _symmetry_equiv_pos_as_xyz
  1  'x, y, z'
loop_
 _atom_site_type_symbol
 _atom_site_label
 _atom_site_symmetry_multiplicity
 _atom_site_fract_x
 _atom_site_fract_y
 _atom_site_fract_z
 _atom_site_occupancy
  Mo  Mo0  1  1.93436000  2.31829000  0.29623500  1
  Mo  Mo1  1  1.93384000  0.60038100  2.03876000  1
  Mo  Mo2  1  -0.19351500  2.32887000  2.01804000  1
  Mo  Mo3  1  4.06603000  7.50627000  3.75070000  1
  Mo  Mo4  1  4.04838000  2.32756000  2.00955000  1
  Mo  Mo5  1  -0.21337500  4.06360000  3.74284000  1
  Mo  Mo6  1  1.92458000  5.76399000  0.30310100  1
  Mo  Mo7  1  1.91778000  4.04661000  2.03690000  1
  Mo  Mo8  1  -0.19823400  5.77843000  2.01939000  1
  Mo  Mo9  1  4.04153000  4.05428000  0.29781200  1
  Mo  Mo10  1  4.03996000  5.78068000  2.02328000  1
  Mo  Mo11  1  8.29983000  7.50232000  3.76045000  1
  Mo  Mo12  1  6.18797000  2.32450000  0.29206400  1
  Mo  Mo13  1  6.17113000  0.59415900  2.03472000  1
  Mo  Mo14  1  6.17671000  5.76919000  0.30717500  1
  Mo  Mo15  1  6.17245000  4.04087000  2.03381000  1
