# generated using pymatgen
data_Mo
_symmetry_space_group_name_H-M   'P 1'
_cell_length_a   7.37558508
_cell_length_b   7.23701036
_cell_length_c   3.61987376
_cell_angle_alpha   90.00000000
_cell_angle_beta   90.00000000
_cell_angle_gamma   90.00000000
_symmetry_Int_Tables_number   1
_chemical_formula_structural   Mo
_chemical_formula_sum   Mo16
_cell_volume   193.21867375
_cell_formula_units_Z   16
loop_
 _symmetry_equiv_pos_site_id
 _symmetry_equiv_pos_as_xyz
  1  'x, y, z'
loop_
 _atom_site_type_symbol
 _atom_site_label
 _atom_site_symmetry_multiplicity
 _atom_site_fract_x
 _atom_site_fract_y
 _atom_site_fract_z
 _atom_site_occupancy
  Mo  Mo0  1  0.34282200  7.66631000  3.83942000  1
  Mo  Mo1  1  2.19425000  2.24034000  0.20822500  1
  Mo  Mo2  1  2.20361000  0.42853100  2.03484000  1
  Mo  Mo3  1  0.35423200  2.24652000  2.00902000  1
  Mo  Mo4  1  4.04677000  7.67444000  3.84947000  1
  Mo  Mo5  1  5.89407000  2.24157000  0.20803000  1
  Mo  Mo6  1  5.88351000  0.42836900  2.03962000  1
  Mo  Mo7  1  4.04622000  2.24828000  2.01235000  1
  Mo  Mo8  1  7.73803000  4.05566000  0.21045400  1
  Mo  Mo9  1  2.20395000  5.85989000  0.21698800  1
  Mo  Mo10  1  2.21248000  4.04394000  2.01802000  1
  Mo  Mo11  1  0.37005900  5.85726000  2.01814000  1
  Mo  Mo12  1  4.05892000  4.05033000  0.22048800  1
  Mo  Mo13  1  5.90351000  5.85328000  3.84204000  1
  Mo  Mo14  1  5.91974000  4.04789000  2.02353000  1
  Mo  Mo15  1  4.05224000  5.85740000  2.02949000  1
