# generated using pymatgen
data_Mo
_symmetry_space_group_name_H-M   'P 1'
_cell_length_a   8.38723570
_cell_length_b   6.91100371
_cell_length_c   3.45336652
_cell_angle_alpha   90.00000000
_cell_angle_beta   90.00000000
_cell_angle_gamma   90.00000000
_symmetry_Int_Tables_number   1
_chemical_formula_structural   Mo
_chemical_formula_sum   Mo16
_cell_volume   200.17168636
_cell_formula_units_Z   16
loop_
 _symmetry_equiv_pos_site_id
 _symmetry_equiv_pos_as_xyz
  1  'x, y, z'
loop_
 _atom_site_type_symbol
 _atom_site_label
 _atom_site_symmetry_multiplicity
 _atom_site_fract_x
 _atom_site_fract_y
 _atom_site_fract_z
 _atom_site_occupancy
  Mo  Mo0  1  1.94223000  2.31932000  0.31107700  1
  Mo  Mo1  1  1.94958000  0.60433500  2.01806000  1
  Mo  Mo2  1  -0.15304600  2.31850000  2.03865000  1
  Mo  Mo3  1  4.03958000  7.49881000  3.73337000  1
  Mo  Mo4  1  4.05442000  2.32437000  2.03676000  1
  Mo  Mo5  1  -0.13626700  4.04693000  3.75601000  1
  Mo  Mo6  1  1.95227000  5.77921000  0.29493300  1
  Mo  Mo7  1  1.95633000  4.05743000  2.01968000  1
  Mo  Mo8  1  -0.14741600  5.77563000  2.02412000  1
  Mo  Mo9  1  4.05403000  4.04316000  0.29962300  1
  Mo  Mo10  1  4.05857000  5.77282000  2.03373000  1
  Mo  Mo11  1  8.23569000  7.49635000  3.73621000  1
  Mo  Mo12  1  6.14404000  2.32596000  0.30960100  1
  Mo  Mo13  1  6.15413000  0.59878600  2.01560000  1
  Mo  Mo14  1  6.14641000  5.78499000  0.30108200  1
  Mo  Mo15  1  6.16222000  4.05341000  2.01814000  1
