# generated using pymatgen
data_Mo
_symmetry_space_group_name_H-M   'P 1'
_cell_length_a   8.28825397
_cell_length_b   6.93856394
_cell_length_c   3.46911931
_cell_angle_alpha   90.00000000
_cell_angle_beta   90.00000000
_cell_angle_gamma   90.00000000
_symmetry_Int_Tables_number   1
_chemical_formula_structural   Mo
_chemical_formula_sum   Mo16
_cell_volume   199.50412591
_cell_formula_units_Z   16
loop_
 _symmetry_equiv_pos_site_id
 _symmetry_equiv_pos_as_xyz
  1  'x, y, z'
loop_
 _atom_site_type_symbol
 _atom_site_label
 _atom_site_symmetry_multiplicity
 _atom_site_fract_x
 _atom_site_fract_y
 _atom_site_fract_z
 _atom_site_occupancy
  Mo  Mo0  1  1.97296000  2.32491000  0.28597100  1
  Mo  Mo1  1  1.95730000  0.57581300  2.02372000  1
  Mo  Mo2  1  -0.09296080  2.31841000  2.02277000  1
  Mo  Mo3  1  4.05030000  7.51800000  3.77361000  1
  Mo  Mo4  1  4.04352000  2.31440000  2.01856000  1
  Mo  Mo5  1  -0.09280540  4.04520000  3.75974000  1
  Mo  Mo6  1  1.97966000  5.78271000  0.28252700  1
  Mo  Mo7  1  1.98203000  4.04983000  2.03212000  1
  Mo  Mo8  1  -0.08791970  5.78225000  2.01401000  1
  Mo  Mo9  1  4.06607000  4.05239000  0.29738500  1
  Mo  Mo10  1  4.05548000  5.78396000  2.02192000  1
  Mo  Mo11  1  8.18487000  7.52135000  3.76687000  1
  Mo  Mo12  1  6.12686000  2.31771000  0.28313800  1
  Mo  Mo13  1  6.11237000  0.58129000  2.02561000  1
  Mo  Mo14  1  6.13434000  5.78136000  0.28808800  1
  Mo  Mo15  1  6.11967000  4.05040000  2.03484000  1
