# generated using pymatgen
data_Mo
_symmetry_space_group_name_H-M   'P 1'
_cell_length_a   8.21401791
_cell_length_b   6.96306086
_cell_length_c   3.47934270
_cell_angle_alpha   90.00000000
_cell_angle_beta   90.00000000
_cell_angle_gamma   90.00000000
_symmetry_Int_Tables_number   1
_chemical_formula_structural   Mo
_chemical_formula_sum   Mo16
_cell_volume   198.99998473
_cell_formula_units_Z   16
loop_
 _symmetry_equiv_pos_site_id
 _symmetry_equiv_pos_as_xyz
  1  'x, y, z'
loop_
 _atom_site_type_symbol
 _atom_site_label
 _atom_site_symmetry_multiplicity
 _atom_site_fract_x
 _atom_site_fract_y
 _atom_site_fract_z
 _atom_site_occupancy
  Mo  Mo0  1  1.98934000  2.30385000  0.27441900  1
  Mo  Mo1  1  1.98430000  0.56212500  2.04147000  1
  Mo  Mo2  1  -0.06250730  2.31974000  2.01147000  1
  Mo  Mo3  1  4.04635000  7.53917000  3.77327000  1
  Mo  Mo4  1  4.04784000  2.31287000  2.01205000  1
  Mo  Mo5  1  -0.04912970  4.06101000  3.76720000  1
  Mo  Mo6  1  1.99347000  5.78498000  0.27947500  1
  Mo  Mo7  1  2.00102000  4.04377000  2.02859000  1
  Mo  Mo8  1  -0.05306140  5.78706000  2.01649000  1
  Mo  Mo9  1  4.06263000  4.05760000  0.28835000  1
  Mo  Mo10  1  4.05755000  5.79719000  2.02596000  1
  Mo  Mo11  1  8.15206000  7.53811000  3.77290000  1
  Mo  Mo12  1  6.09654000  2.30450000  0.27305000  1
  Mo  Mo13  1  6.09279000  0.56130200  2.04182000  1
  Mo  Mo14  1  6.10894000  5.78986000  0.28389300  1
  Mo  Mo15  1  6.11784000  4.03687000  2.03024000  1
