# generated using pymatgen
data_Mo
_symmetry_space_group_name_H-M   'P 1'
_cell_length_a   8.30717685
_cell_length_b   6.93417960
_cell_length_c   3.46570635
_cell_angle_alpha   90.00000000
_cell_angle_beta   90.00000000
_cell_angle_gamma   90.00000000
_symmetry_Int_Tables_number   1
_chemical_formula_structural   Mo
_chemical_formula_sum   Mo16
_cell_volume   199.63666414
_cell_formula_units_Z   16
loop_
 _symmetry_equiv_pos_site_id
 _symmetry_equiv_pos_as_xyz
  1  'x, y, z'
loop_
 _atom_site_type_symbol
 _atom_site_label
 _atom_site_symmetry_multiplicity
 _atom_site_fract_x
 _atom_site_fract_y
 _atom_site_fract_z
 _atom_site_occupancy
  Mo  Mo0  1  1.97473000  2.32194000  0.28052400  1
  Mo  Mo1  1  1.98161000  0.58738400  2.03155000  1
  Mo  Mo2  1  -0.10067400  2.30683000  2.01765000  1
  Mo  Mo3  1  4.05865000  7.51492000  3.77344000  1
  Mo  Mo4  1  4.05693000  2.31127000  2.01201000  1
  Mo  Mo5  1  -0.10830700  4.04777000  3.76211000  1
  Mo  Mo6  1  1.96932000  5.79516000  0.28873100  1
  Mo  Mo7  1  1.96810000  4.05166000  2.03125000  1
  Mo  Mo8  1  -0.10187500  5.77924000  2.02273000  1
  Mo  Mo9  1  4.03637000  4.04305000  0.29260500  1
  Mo  Mo10  1  4.04935000  5.77283000  2.01915000  1
  Mo  Mo11  1  8.21599000  7.50892000  3.77751000  1
  Mo  Mo12  1  6.12579000  2.32629000  0.27883900  1
  Mo  Mo13  1  6.12418000  0.58459500  2.02882000  1
  Mo  Mo14  1  6.11500000  5.79231000  0.28870400  1
  Mo  Mo15  1  6.12767000  4.05584000  2.02867000  1
