# generated using pymatgen
data_Mo
_symmetry_space_group_name_H-M   'P 1'
_cell_length_a   7.43817651
_cell_length_b   7.21568060
_cell_length_c   3.60585904
_cell_angle_alpha   90.00000000
_cell_angle_beta   90.00000000
_cell_angle_gamma   90.00000000
_symmetry_Int_Tables_number   1
_chemical_formula_structural   Mo
_chemical_formula_sum   Mo16
_cell_volume   193.53188501
_cell_formula_units_Z   16
loop_
 _symmetry_equiv_pos_site_id
 _symmetry_equiv_pos_as_xyz
  1  'x, y, z'
loop_
 _atom_site_type_symbol
 _atom_site_label
 _atom_site_symmetry_multiplicity
 _atom_site_fract_x
 _atom_site_fract_y
 _atom_site_fract_z
 _atom_site_occupancy
  Mo  Mo0  1  0.33644200  7.64602000  3.81574000  1
  Mo  Mo1  1  2.19273000  2.25114000  0.23930800  1
  Mo  Mo2  1  2.19005000  0.44858800  2.01453000  1
  Mo  Mo3  1  0.33587200  2.24164000  2.04582000  1
  Mo  Mo4  1  4.06887000  7.65111000  3.81236000  1
  Mo  Mo5  1  5.92741000  2.24741000  0.23005900  1
  Mo  Mo6  1  5.90620000  0.45304200  2.01272000  1
  Mo  Mo7  1  4.05068000  2.24922000  2.02863000  1
  Mo  Mo8  1  7.75293000  4.04447000  0.22623900  1
  Mo  Mo9  1  2.19039000  5.86342000  0.22663800  1
  Mo  Mo10  1  2.18111000  4.05079000  2.01252000  1
  Mo  Mo11  1  0.33172400  5.85377000  2.03459000  1
  Mo  Mo12  1  4.04246000  4.04138000  0.22277000  1
  Mo  Mo13  1  5.90990000  5.85507000  3.83119000  1
  Mo  Mo14  1  5.90210000  4.06126000  2.01180000  1
  Mo  Mo15  1  4.04296000  5.84166000  2.02925000  1
