# generated using pymatgen
data_Mo
_symmetry_space_group_name_H-M   'P 1'
_cell_length_a   8.68854728
_cell_length_b   6.82676363
_cell_length_c   3.41321373
_cell_angle_alpha   90.00000000
_cell_angle_beta   90.00000000
_cell_angle_gamma   90.00000000
_symmetry_Int_Tables_number   1
_chemical_formula_structural   Mo
_chemical_formula_sum   Mo16
_cell_volume   202.45360709
_cell_formula_units_Z   16
loop_
 _symmetry_equiv_pos_site_id
 _symmetry_equiv_pos_as_xyz
  1  'x, y, z'
loop_
 _atom_site_type_symbol
 _atom_site_label
 _atom_site_symmetry_multiplicity
 _atom_site_fract_x
 _atom_site_fract_y
 _atom_site_fract_z
 _atom_site_occupancy
  Mo  Mo0  1  1.87793000  2.35012000  0.31019200  1
  Mo  Mo1  1  1.87965000  0.63232900  2.03145000  1
  Mo  Mo2  1  -0.28460200  2.34339000  2.01620000  1
  Mo  Mo3  1  4.04882000  7.46470000  3.73642000  1
  Mo  Mo4  1  4.04383000  2.34274000  2.02882000  1
  Mo  Mo5  1  -0.28963600  4.04853000  3.73803000  1
  Mo  Mo6  1  1.87899000  5.75986000  0.30574100  1
  Mo  Mo7  1  1.88167000  4.04757000  2.03375000  1
  Mo  Mo8  1  -0.28572200  5.75248000  2.01585000  1
  Mo  Mo9  1  4.06078000  4.05494000  0.33703900  1
  Mo  Mo10  1  4.04625000  5.75270000  2.01648000  1
  Mo  Mo11  1  8.38886000  7.46446000  3.72420000  1
  Mo  Mo12  1  6.21513000  2.34403000  0.31717800  1
  Mo  Mo13  1  6.21669000  0.63634400  2.03509000  1
  Mo  Mo14  1  6.22558000  5.75557000  0.30422800  1
  Mo  Mo15  1  6.20725000  4.05023000  2.03612000  1
