# generated using pymatgen
data_Mo
_symmetry_space_group_name_H-M   'P 1'
_cell_length_a   7.27805927
_cell_length_b   7.27805927
_cell_length_c   3.63902974
_cell_angle_alpha   90.00000000
_cell_angle_beta   90.00000000
_cell_angle_gamma   90.00000000
_symmetry_Int_Tables_number   1
_chemical_formula_structural   Mo
_chemical_formula_sum   Mo16
_cell_volume   192.75993959
_cell_formula_units_Z   16
loop_
 _symmetry_equiv_pos_site_id
 _symmetry_equiv_pos_as_xyz
  1  'x, y, z'
loop_
 _atom_site_type_symbol
 _atom_site_label
 _atom_site_symmetry_multiplicity
 _atom_site_fract_x
 _atom_site_fract_y
 _atom_site_fract_z
 _atom_site_occupancy
  Mo  Mo0  1  0.41793400  7.67602000  3.83198000  1
  Mo  Mo1  1  2.24248000  2.23426000  0.22062800  1
  Mo  Mo2  1  2.24179000  0.41799700  2.01098000  1
  Mo  Mo3  1  0.41434800  2.22487000  2.04127000  1
  Mo  Mo4  1  4.06262000  7.68316000  3.82842000  1
  Mo  Mo5  1  5.88053000  2.23334000  0.21968100  1
  Mo  Mo6  1  5.86114000  0.42057200  2.00983000  1
  Mo  Mo7  1  4.05063000  2.22608000  2.03650000  1
  Mo  Mo8  1  7.67824000  4.04372000  0.21007000  1
  Mo  Mo9  1  2.23448000  5.88139000  0.21228800  1
  Mo  Mo10  1  2.21888000  4.05457000  2.01602000  1
  Mo  Mo11  1  0.41195900  5.86906000  2.03685000  1
  Mo  Mo12  1  4.03638000  4.03728000  0.20635000  1
  Mo  Mo13  1  5.86837000  5.87204000  3.84382000  1
  Mo  Mo14  1  5.86379000  4.06271000  2.01400000  1
  Mo  Mo15  1  4.03837000  5.86291000  2.02227000  1
