# generated using pymatgen
data_Mo
_symmetry_space_group_name_H-M   'P 1'
_cell_length_a   7.62886171
_cell_length_b   7.14302489
_cell_length_c   3.57297921
_cell_angle_alpha   90.00000000
_cell_angle_beta   90.00000000
_cell_angle_gamma   90.00000000
_symmetry_Int_Tables_number   1
_chemical_formula_structural   Mo
_chemical_formula_sum   Mo16
_cell_volume   194.70288889
_cell_formula_units_Z   16
loop_
 _symmetry_equiv_pos_site_id
 _symmetry_equiv_pos_as_xyz
  1  'x, y, z'
loop_
 _atom_site_type_symbol
 _atom_site_label
 _atom_site_symmetry_multiplicity
 _atom_site_fract_x
 _atom_site_fract_y
 _atom_site_fract_z
 _atom_site_occupancy
  Mo  Mo0  1  0.23721400  7.62338000  3.82284000  1
  Mo  Mo1  1  2.14404000  2.25486000  0.24241000  1
  Mo  Mo2  1  2.15205000  0.47518000  2.02422000  1
  Mo  Mo3  1  0.24040100  2.27208000  2.02484000  1
  Mo  Mo4  1  4.06259000  7.62988000  3.81336000  1
  Mo  Mo5  1  5.96927000  2.26454000  0.23708400  1
  Mo  Mo6  1  5.95902000  0.46774300  2.01904000  1
  Mo  Mo7  1  4.05791000  2.27597000  2.01625000  1
  Mo  Mo8  1  7.85982000  4.06319000  0.23718200  1
  Mo  Mo9  1  2.14049000  5.82751000  0.24331400  1
  Mo  Mo10  1  2.11623000  4.04285000  2.02902000  1
  Mo  Mo11  1  0.23367800  5.84050000  2.01991000  1
  Mo  Mo12  1  4.05074000  4.05268000  0.22784000  1
  Mo  Mo13  1  5.95881000  5.83153000  3.81974000  1
  Mo  Mo14  1  5.94525000  4.03897000  2.02521000  1
  Mo  Mo15  1  4.04362000  5.83912000  2.02476000  1
