# generated using pymatgen
data_Mo
_symmetry_space_group_name_H-M   'P 1'
_cell_length_a   7.62449485
_cell_length_b   7.14712858
_cell_length_c   3.57266116
_cell_angle_alpha   90.00000000
_cell_angle_beta   90.00000000
_cell_angle_gamma   90.00000000
_symmetry_Int_Tables_number   1
_chemical_formula_structural   Mo
_chemical_formula_sum   Mo16
_cell_volume   194.68590022
_cell_formula_units_Z   16
loop_
 _symmetry_equiv_pos_site_id
 _symmetry_equiv_pos_as_xyz
  1  'x, y, z'
loop_
 _atom_site_type_symbol
 _atom_site_label
 _atom_site_symmetry_multiplicity
 _atom_site_fract_x
 _atom_site_fract_y
 _atom_site_fract_z
 _atom_site_occupancy
  Mo  Mo0  1  0.23838500  7.62231000  3.80631000  1
  Mo  Mo1  1  2.14665000  2.25648000  0.25222200  1
  Mo  Mo2  1  2.15898000  0.47717300  2.01495000  1
  Mo  Mo3  1  0.24836500  2.26007000  2.04145000  1
  Mo  Mo4  1  4.06181000  7.62680000  3.79750000  1
  Mo  Mo5  1  5.96871000  2.26095000  0.24562400  1
  Mo  Mo6  1  5.95802000  0.47366800  2.01149000  1
  Mo  Mo7  1  4.05383000  2.27174000  2.02984000  1
  Mo  Mo8  1  7.85412000  4.05514000  0.23699900  1
  Mo  Mo9  1  2.14597000  5.83487000  0.24555200  1
  Mo  Mo10  1  2.12714000  4.04607000  2.02248000  1
  Mo  Mo11  1  0.24017200  5.84878000  2.03343000  1
  Mo  Mo12  1  4.04436000  4.04791000  0.22826300  1
  Mo  Mo13  1  5.95185000  5.83052000  3.81487000  1
  Mo  Mo14  1  5.93842000  4.05171000  2.01948000  1
  Mo  Mo15  1  4.03871000  5.83581000  2.02687000  1
