# generated using pymatgen
data_Mo
_symmetry_space_group_name_H-M   'P 1'
_cell_length_a   7.96510764
_cell_length_b   7.03507835
_cell_length_c   3.51815057
_cell_angle_alpha   90.00000000
_cell_angle_beta   90.00000000
_cell_angle_gamma   90.00000000
_symmetry_Int_Tables_number   1
_chemical_formula_structural   Mo
_chemical_formula_sum   Mo16
_cell_volume   197.14011697
_cell_formula_units_Z   16
loop_
 _symmetry_equiv_pos_site_id
 _symmetry_equiv_pos_as_xyz
  1  'x, y, z'
loop_
 _atom_site_type_symbol
 _atom_site_label
 _atom_site_symmetry_multiplicity
 _atom_site_fract_x
 _atom_site_fract_y
 _atom_site_fract_z
 _atom_site_occupancy
  Mo  Mo0  1  0.07324330  7.56800000  3.78520000  1
  Mo  Mo1  1  2.05481000  2.29426000  0.26386000  1
  Mo  Mo2  1  2.06812000  0.53272800  2.03049000  1
  Mo  Mo3  1  0.07269130  2.28836000  2.02587000  1
  Mo  Mo4  1  4.07023000  7.57121000  3.77699000  1
  Mo  Mo5  1  6.04754000  2.29965000  0.26590200  1
  Mo  Mo6  1  6.04435000  0.52973100  2.02624000  1
  Mo  Mo7  1  4.05344000  2.29095000  2.02549000  1
  Mo  Mo8  1  8.02137000  4.05240000  0.27377600  1
  Mo  Mo9  1  2.04643000  5.80631000  0.26316300  1
  Mo  Mo10  1  2.04840000  4.04998000  2.03406000  1
  Mo  Mo11  1  0.06802970  5.80809000  2.02792000  1
  Mo  Mo12  1  4.04757000  4.04831000  0.26535400  1
  Mo  Mo13  1  6.03733000  5.80539000  3.77485000  1
  Mo  Mo14  1  6.03862000  4.05117000  2.02830000  1
  Mo  Mo15  1  4.04271000  5.80348000  2.01438000  1
