# generated using pymatgen
data_Mo
_symmetry_space_group_name_H-M   'P 1'
_cell_length_a   8.70310283
_cell_length_b   6.84689540
_cell_length_c   3.39957643
_cell_angle_alpha   90.00000000
_cell_angle_beta   90.00000000
_cell_angle_gamma   90.00000000
_symmetry_Int_Tables_number   1
_chemical_formula_structural   Mo
_chemical_formula_sum   Mo16
_cell_volume   202.57815745
_cell_formula_units_Z   16
loop_
 _symmetry_equiv_pos_site_id
 _symmetry_equiv_pos_as_xyz
  1  'x, y, z'
loop_
 _atom_site_type_symbol
 _atom_site_label
 _atom_site_symmetry_multiplicity
 _atom_site_fract_x
 _atom_site_fract_y
 _atom_site_fract_z
 _atom_site_occupancy
  Mo  Mo0  1  1.88032000  2.33699000  0.32769900  1
  Mo  Mo1  1  1.87989000  0.63270900  2.02024000  1
  Mo  Mo2  1  -0.30451200  2.33124000  2.02799000  1
  Mo  Mo3  1  4.06327000  7.47044000  3.72779000  1
  Mo  Mo4  1  4.06138000  2.33756000  2.02363000  1
  Mo  Mo5  1  -0.31271300  4.04744000  3.71736000  1
  Mo  Mo6  1  1.87697000  5.76670000  0.33410300  1
  Mo  Mo7  1  1.85096000  4.05252000  2.02012000  1
  Mo  Mo8  1  -0.31188000  5.76535000  2.02917000  1
  Mo  Mo9  1  4.03302000  4.04222000  0.31144800  1
  Mo  Mo10  1  4.04675000  5.76107000  2.03441000  1
  Mo  Mo11  1  8.41105000  7.46707000  3.73399000  1
  Mo  Mo12  1  6.24431000  2.34464000  0.32403000  1
  Mo  Mo13  1  6.22957000  0.62538200  2.01521000  1
  Mo  Mo14  1  6.22594000  5.76896000  0.33646700  1
  Mo  Mo15  1  6.22257000  4.04971000  2.01676000  1
