# generated using pymatgen
data_Mo
_symmetry_space_group_name_H-M   'P 1'
_cell_length_a   8.61285481
_cell_length_b   6.85409963
_cell_length_c   3.41879821
_cell_angle_alpha   90.00000000
_cell_angle_beta   90.00000000
_cell_angle_gamma   90.00000000
_symmetry_Int_Tables_number   1
_chemical_formula_structural   Mo
_chemical_formula_sum   Mo16
_cell_volume   201.82316238
_cell_formula_units_Z   16
loop_
 _symmetry_equiv_pos_site_id
 _symmetry_equiv_pos_as_xyz
  1  'x, y, z'
loop_
 _atom_site_type_symbol
 _atom_site_label
 _atom_site_symmetry_multiplicity
 _atom_site_fract_x
 _atom_site_fract_y
 _atom_site_fract_z
 _atom_site_occupancy
  Mo  Mo0  1  1.90365000  2.32858000  0.31952300  1
  Mo  Mo1  1  1.89645000  0.61943500  2.02598000  1
  Mo  Mo2  1  -0.24686300  2.34931000  2.02598000  1
  Mo  Mo3  1  4.06553000  7.48320000  3.72731000  1
  Mo  Mo4  1  4.05309000  2.33915000  2.02628000  1
  Mo  Mo5  1  -0.26772900  4.05717000  3.72167000  1
  Mo  Mo6  1  1.88698000  5.74913000  0.33066800  1
  Mo  Mo7  1  1.88421000  4.04825000  2.01548000  1
  Mo  Mo8  1  -0.25644300  5.76345000  2.03807000  1
  Mo  Mo9  1  4.04800000  4.05623000  0.29888900  1
  Mo  Mo10  1  4.04635000  5.77496000  2.03422000  1
  Mo  Mo11  1  8.36597000  7.48609000  3.73158000  1
  Mo  Mo12  1  6.20773000  2.32832000  0.31899000  1
  Mo  Mo13  1  6.20440000  0.62054700  2.02484000  1
  Mo  Mo14  1  6.20786000  5.75209000  0.32737200  1
  Mo  Mo15  1  6.18797000  4.04410000  2.01434000  1
