# generated using pymatgen
data_Mo
_symmetry_space_group_name_H-M   'P 1'
_cell_length_a   7.90106075
_cell_length_b   7.05507791
_cell_length_c   3.52794576
_cell_angle_alpha   90.00000000
_cell_angle_beta   90.00000000
_cell_angle_gamma   90.00000000
_symmetry_Int_Tables_number   1
_chemical_formula_structural   Mo
_chemical_formula_sum   Mo16
_cell_volume   196.65686627
_cell_formula_units_Z   16
loop_
 _symmetry_equiv_pos_site_id
 _symmetry_equiv_pos_as_xyz
  1  'x, y, z'
loop_
 _atom_site_type_symbol
 _atom_site_label
 _atom_site_symmetry_multiplicity
 _atom_site_fract_x
 _atom_site_fract_y
 _atom_site_fract_z
 _atom_site_occupancy
  Mo  Mo0  1  0.10602700  7.57417000  3.77919000  1
  Mo  Mo1  1  2.08473000  2.28770000  0.26880300  1
  Mo  Mo2  1  2.07115000  0.52028900  2.01735000  1
  Mo  Mo3  1  0.09701130  2.28669000  2.02986000  1
  Mo  Mo4  1  4.05027000  7.57841000  3.78635000  1
  Mo  Mo5  1  6.02980000  2.28566000  0.26849100  1
  Mo  Mo6  1  6.02006000  0.52338000  2.01909000  1
  Mo  Mo7  1  4.05208000  2.27925000  2.03003000  1
  Mo  Mo8  1  7.99778000  4.04641000  0.26817700  1
  Mo  Mo9  1  2.07867000  5.81415000  0.25289400  1
  Mo  Mo10  1  2.06717000  4.05364000  2.02320000  1
  Mo  Mo11  1  0.09577870  5.81468000  2.01388000  1
  Mo  Mo12  1  4.04423000  4.04578000  0.27494100  1
  Mo  Mo13  1  6.03031000  5.81557000  3.78843000  1
  Mo  Mo14  1  6.02307000  4.05131000  2.02591000  1
  Mo  Mo15  1  4.05080000  5.82290000  2.02546000  1
