# generated using pymatgen
data_Mo
_symmetry_space_group_name_H-M   'P 1'
_cell_length_a   7.28970391
_cell_length_b   7.27168611
_cell_length_c   3.63709712
_cell_angle_alpha   90.00000000
_cell_angle_beta   90.00000000
_cell_angle_gamma   90.00000000
_symmetry_Int_Tables_number   1
_chemical_formula_structural   Mo
_chemical_formula_sum   Mo16
_cell_volume   192.79683943
_cell_formula_units_Z   16
loop_
 _symmetry_equiv_pos_site_id
 _symmetry_equiv_pos_as_xyz
  1  'x, y, z'
loop_
 _atom_site_type_symbol
 _atom_site_label
 _atom_site_symmetry_multiplicity
 _atom_site_fract_x
 _atom_site_fract_y
 _atom_site_fract_z
 _atom_site_occupancy
  Mo  Mo0  1  0.40694400  7.69498000  3.85384000  1
  Mo  Mo1  1  2.21555000  2.22750000  0.19853500  1
  Mo  Mo2  1  2.23018000  0.40959500  2.03333000  1
  Mo  Mo3  1  0.40066200  2.23032000  2.02050000  1
  Mo  Mo4  1  4.05080000  7.69685000  3.84697000  1
  Mo  Mo5  1  5.87204000  2.23608000  0.19742400  1
  Mo  Mo6  1  5.88586000  0.40108300  2.03023000  1
  Mo  Mo7  1  4.06111000  2.24227000  2.01854000  1
  Mo  Mo8  1  7.70118000  4.06054000  0.21261200  1
  Mo  Mo9  1  2.22300000  5.85676000  0.19629500  1
  Mo  Mo10  1  2.21732000  4.04423000  2.04270000  1
  Mo  Mo11  1  0.39847900  5.87544000  2.01514000  1
  Mo  Mo12  1  4.05053000  4.05528000  0.20582300  1
  Mo  Mo13  1  5.86343000  5.86041000  3.83450000  1
  Mo  Mo14  1  5.87692000  4.04256000  2.03994000  1
  Mo  Mo15  1  4.05629000  5.86610000  2.01652000  1
