# generated using pymatgen
data_Mo
_symmetry_space_group_name_H-M   'P 1'
_cell_length_a   7.77005605
_cell_length_b   7.09567475
_cell_length_c   3.54926944
_cell_angle_alpha   90.00000000
_cell_angle_beta   90.00000000
_cell_angle_gamma   90.00000000
_symmetry_Int_Tables_number   1
_chemical_formula_structural   Mo
_chemical_formula_sum   Mo16
_cell_volume   195.68467787
_cell_formula_units_Z   16
loop_
 _symmetry_equiv_pos_site_id
 _symmetry_equiv_pos_as_xyz
  1  'x, y, z'
loop_
 _atom_site_type_symbol
 _atom_site_label
 _atom_site_symmetry_multiplicity
 _atom_site_fract_x
 _atom_site_fract_y
 _atom_site_fract_z
 _atom_site_occupancy
  Mo  Mo0  1  0.16714700  7.59020000  3.80421000  1
  Mo  Mo1  1  2.10335000  2.28589000  0.24797700  1
  Mo  Mo2  1  2.10445000  0.50575500  2.03171000  1
  Mo  Mo3  1  0.16596200  2.27446000  2.02890000  1
  Mo  Mo4  1  4.06535000  7.59455000  3.79840000  1
  Mo  Mo5  1  5.99934000  2.28425000  0.24292700  1
  Mo  Mo6  1  5.98667000  0.50846900  2.02778000  1
  Mo  Mo7  1  4.04903000  2.26760000  2.01750000  1
  Mo  Mo8  1  7.92520000  4.04589000  0.26449100  1
  Mo  Mo9  1  2.09840000  5.82963000  0.24162500  1
  Mo  Mo10  1  2.10242000  4.05628000  2.02847000  1
  Mo  Mo11  1  0.16664900  5.81384000  2.02374000  1
  Mo  Mo12  1  4.05439000  4.04118000  0.25847300  1
  Mo  Mo13  1  5.99691000  5.82855000  3.79037000  1
  Mo  Mo14  1  5.99702000  4.05675000  2.02522000  1
  Mo  Mo15  1  4.04766000  5.81672000  2.01894000  1
