# generated using pymatgen
data_Mo
_symmetry_space_group_name_H-M   'P 1'
_cell_length_a   7.87777102
_cell_length_b   7.06246412
_cell_length_c   3.53157306
_cell_angle_alpha   90.00000000
_cell_angle_beta   90.00000000
_cell_angle_gamma   90.00000000
_symmetry_Int_Tables_number   1
_chemical_formula_structural   Mo
_chemical_formula_sum   Mo16
_cell_volume   196.48427666
_cell_formula_units_Z   16
loop_
 _symmetry_equiv_pos_site_id
 _symmetry_equiv_pos_as_xyz
  1  'x, y, z'
loop_
 _atom_site_type_symbol
 _atom_site_label
 _atom_site_symmetry_multiplicity
 _atom_site_fract_x
 _atom_site_fract_y
 _atom_site_fract_z
 _atom_site_occupancy
  Mo  Mo0  1  0.10630000  7.58112000  3.78795000  1
  Mo  Mo1  1  2.07682000  2.27979000  0.26450300  1
  Mo  Mo2  1  2.06413000  0.51891700  2.02141000  1
  Mo  Mo3  1  0.10546400  2.29116000  2.02866000  1
  Mo  Mo4  1  4.05297000  7.58076000  3.78637000  1
  Mo  Mo5  1  6.01970000  2.28221000  0.26451800  1
  Mo  Mo6  1  6.00260000  0.51704300  2.01942000  1
  Mo  Mo7  1  4.04684000  2.28594000  2.02719000  1
  Mo  Mo8  1  7.99273000  4.05086000  0.25635600  1
  Mo  Mo9  1  2.07881000  5.81099000  0.26488400  1
  Mo  Mo10  1  2.08251000  4.05054000  2.01730000  1
  Mo  Mo11  1  0.11662900  5.81827000  2.02838000  1
  Mo  Mo12  1  4.06094000  4.05037000  0.25477300  1
  Mo  Mo13  1  6.03053000  5.81252000  3.79912000  1
  Mo  Mo14  1  6.03004000  4.04705000  2.01616000  1
  Mo  Mo15  1  4.05521000  5.82247000  2.03143000  1
