# generated using pymatgen
data_Mo
_symmetry_space_group_name_H-M   'P 1'
_cell_length_a   7.80062404
_cell_length_b   7.08704591
_cell_length_c   3.54390168
_cell_angle_alpha   90.00000000
_cell_angle_beta   90.00000000
_cell_angle_gamma   90.00000000
_symmetry_Int_Tables_number   1
_chemical_formula_structural   Mo
_chemical_formula_sum   Mo16
_cell_volume   195.91886585
_cell_formula_units_Z   16
loop_
 _symmetry_equiv_pos_site_id
 _symmetry_equiv_pos_as_xyz
  1  'x, y, z'
loop_
 _atom_site_type_symbol
 _atom_site_label
 _atom_site_symmetry_multiplicity
 _atom_site_fract_x
 _atom_site_fract_y
 _atom_site_fract_z
 _atom_site_occupancy
  Mo  Mo0  1  0.12760800  7.59032000  3.78682000  1
  Mo  Mo1  1  2.08288000  2.27894000  0.26314900  1
  Mo  Mo2  1  2.09851000  0.50865200  2.01072000  1
  Mo  Mo3  1  0.14355700  2.27631000  2.03306000  1
  Mo  Mo4  1  4.04541000  7.59329000  3.79112000  1
  Mo  Mo5  1  6.00383000  2.27979000  0.26407900  1
  Mo  Mo6  1  6.00127000  0.50589500  2.01396000  1
  Mo  Mo7  1  4.04393000  2.29034000  2.03597000  1
  Mo  Mo8  1  7.95829000  4.04915000  0.25335500  1
  Mo  Mo9  1  2.10194000  5.82175000  0.25391900  1
  Mo  Mo10  1  2.10510000  4.04773000  2.02272000  1
  Mo  Mo11  1  0.15284300  5.82837000  2.02471000  1
  Mo  Mo12  1  4.06743000  4.04641000  0.25767300  1
  Mo  Mo13  1  6.00634000  5.81374000  3.79583000  1
  Mo  Mo14  1  6.01178000  4.05577000  2.02560000  1
  Mo  Mo15  1  4.04865000  5.81355000  2.02341000  1
