# generated using pymatgen
data_Mo
_symmetry_space_group_name_H-M   'P 1'
_cell_length_a   8.67544624
_cell_length_b   6.83530486
_cell_length_c   3.41242766
_cell_angle_alpha   90.00000000
_cell_angle_beta   90.00000000
_cell_angle_gamma   90.00000000
_symmetry_Int_Tables_number   1
_chemical_formula_structural   Mo
_chemical_formula_sum   Mo16
_cell_volume   202.35463943
_cell_formula_units_Z   16
loop_
 _symmetry_equiv_pos_site_id
 _symmetry_equiv_pos_as_xyz
  1  'x, y, z'
loop_
 _atom_site_type_symbol
 _atom_site_label
 _atom_site_symmetry_multiplicity
 _atom_site_fract_x
 _atom_site_fract_y
 _atom_site_fract_z
 _atom_site_occupancy
  Mo  Mo0  1  1.87225000  2.33022000  0.32517900  1
  Mo  Mo1  1  1.86565000  0.63097200  2.02021000  1
  Mo  Mo2  1  -0.29921100  2.34614000  2.03083000  1
  Mo  Mo3  1  4.04015000  7.46991000  3.72819000  1
  Mo  Mo4  1  4.04884000  2.34326000  2.02316000  1
  Mo  Mo5  1  -0.28626400  4.05454000  3.72156000  1
  Mo  Mo6  1  1.87505000  5.75130000  0.32663500  1
  Mo  Mo7  1  1.90243000  4.04858000  2.01941000  1
  Mo  Mo8  1  -0.29315000  5.76410000  2.02908000  1
  Mo  Mo9  1  4.05385000  4.05555000  0.30612800  1
  Mo  Mo10  1  4.06152000  5.76815000  2.03252000  1
  Mo  Mo11  1  8.38186000  7.47349000  3.73089000  1
  Mo  Mo12  1  6.21222000  2.33050000  0.32074500  1
  Mo  Mo13  1  6.22183000  0.63266400  2.02148000  1
  Mo  Mo14  1  6.22077000  5.75394000  0.32977200  1
  Mo  Mo15  1  6.24675000  4.04668000  2.02178000  1
