# generated using pymatgen
data_Mo
_symmetry_space_group_name_H-M   'P 1'
_cell_length_a   7.68271942
_cell_length_b   7.12614837
_cell_length_c   3.56295943
_cell_angle_alpha   90.00000000
_cell_angle_beta   90.00000000
_cell_angle_gamma   90.00000000
_symmetry_Int_Tables_number   1
_chemical_formula_structural   Mo
_chemical_formula_sum   Mo16
_cell_volume   195.06561035
_cell_formula_units_Z   16
loop_
 _symmetry_equiv_pos_site_id
 _symmetry_equiv_pos_as_xyz
  1  'x, y, z'
loop_
 _atom_site_type_symbol
 _atom_site_label
 _atom_site_symmetry_multiplicity
 _atom_site_fract_x
 _atom_site_fract_y
 _atom_site_fract_z
 _atom_site_occupancy
  Mo  Mo0  1  0.20163400  7.61991000  3.79742000  1
  Mo  Mo1  1  2.12571000  2.26947000  0.24479800  1
  Mo  Mo2  1  2.10888000  0.47638100  2.03051000  1
  Mo  Mo3  1  0.20825400  2.27279000  2.02085000  1
  Mo  Mo4  1  4.05067000  7.62240000  3.80795000  1
  Mo  Mo5  1  5.97236000  2.26318000  0.24375900  1
  Mo  Mo6  1  5.94884000  0.48112000  2.03449000  1
  Mo  Mo7  1  4.04094000  2.26841000  2.02022000  1
  Mo  Mo8  1  7.89369000  4.05463000  0.24403200  1
  Mo  Mo9  1  2.13359000  5.82643000  0.23722500  1
  Mo  Mo10  1  2.13870000  4.04403000  2.02427000  1
  Mo  Mo11  1  0.21897800  5.83596000  2.01384000  1
  Mo  Mo12  1  4.06371000  4.05641000  0.25478900  1
  Mo  Mo13  1  5.98143000  5.82377000  3.80747000  1
  Mo  Mo14  1  5.97537000  4.04573000  2.02932000  1
  Mo  Mo15  1  4.05453000  5.83936000  2.02609000  1
