# generated using pymatgen
data_Mo
_symmetry_space_group_name_H-M   'P 1'
_cell_length_a   7.90688355
_cell_length_b   7.05413115
_cell_length_c   3.52674794
_cell_angle_alpha   90.00000000
_cell_angle_beta   90.00000000
_cell_angle_gamma   90.00000000
_symmetry_Int_Tables_number   1
_chemical_formula_structural   Mo
_chemical_formula_sum   Mo16
_cell_volume   196.70857570
_cell_formula_units_Z   16
loop_
 _symmetry_equiv_pos_site_id
 _symmetry_equiv_pos_as_xyz
  1  'x, y, z'
loop_
 _atom_site_type_symbol
 _atom_site_label
 _atom_site_symmetry_multiplicity
 _atom_site_fract_x
 _atom_site_fract_y
 _atom_site_fract_z
 _atom_site_occupancy
  Mo  Mo0  1  0.08228460  7.58274000  3.76271000  1
  Mo  Mo1  1  2.06902000  2.28519000  0.27390800  1
  Mo  Mo2  1  2.06517000  0.51351200  2.01467000  1
  Mo  Mo3  1  0.09266750  2.30033000  2.03381000  1
  Mo  Mo4  1  4.04297000  7.58081000  3.77544000  1
  Mo  Mo5  1  6.02802000  2.27423000  0.27692200  1
  Mo  Mo6  1  6.02863000  0.52354900  2.02110000  1
  Mo  Mo7  1  4.04312000  2.28882000  2.04063000  1
  Mo  Mo8  1  8.00712000  4.05141000  0.25186700  1
  Mo  Mo9  1  2.07192000  5.80386000  0.26499500  1
  Mo  Mo10  1  2.07533000  4.04577000  2.01727000  1
  Mo  Mo11  1  0.09483160  5.81617000  2.02845000  1
  Mo  Mo12  1  4.06881000  4.05821000  0.26430600  1
  Mo  Mo13  1  6.04305000  5.80134000  3.79241000  1
  Mo  Mo14  1  6.02871000  4.04727000  2.02336000  1
  Mo  Mo15  1  4.05146000  5.82680000  2.03141000  1
