# generated using pymatgen
data_Mo
_symmetry_space_group_name_H-M   'P 1'
_cell_length_a   7.29843763
_cell_length_b   7.26917699
_cell_length_c   3.63522840
_cell_angle_alpha   90.00000000
_cell_angle_beta   90.00000000
_cell_angle_gamma   90.00000000
_symmetry_Int_Tables_number   1
_chemical_formula_structural   Mo
_chemical_formula_sum   Mo16
_cell_volume   192.86207988
_cell_formula_units_Z   16
loop_
 _symmetry_equiv_pos_site_id
 _symmetry_equiv_pos_as_xyz
  1  'x, y, z'
loop_
 _atom_site_type_symbol
 _atom_site_label
 _atom_site_symmetry_multiplicity
 _atom_site_fract_x
 _atom_site_fract_y
 _atom_site_fract_z
 _atom_site_occupancy
  Mo  Mo0  1  0.39120600  7.68166000  3.84452000  1
  Mo  Mo1  1  2.22525000  2.23268000  0.20480100  1
  Mo  Mo2  1  2.21838000  0.41535600  2.02843000  1
  Mo  Mo3  1  0.39934100  2.23359000  2.01627000  1
  Mo  Mo4  1  4.03582000  7.68210000  3.85327000  1
  Mo  Mo5  1  5.86946000  2.22805000  0.20456000  1
  Mo  Mo6  1  5.86564000  0.41894700  2.03132000  1
  Mo  Mo7  1  4.04078000  2.23040000  2.01760000  1
  Mo  Mo8  1  7.70443000  4.04765000  0.19819800  1
  Mo  Mo9  1  2.23377000  5.87028000  0.21267700  1
  Mo  Mo10  1  2.24241000  4.04985000  2.01467000  1
  Mo  Mo11  1  0.40693700  5.86736000  2.02245000  1
  Mo  Mo12  1  4.05531000  4.05070000  0.20714900  1
  Mo  Mo13  1  5.87961000  5.87117000  3.85517000  1
  Mo  Mo14  1  5.88004000  4.04886000  2.01860000  1
  Mo  Mo15  1  4.05317000  5.87134000  2.03510000  1
