# generated using pymatgen
data_Mo
_symmetry_space_group_name_H-M   'P 1'
_cell_length_a   8.42944784
_cell_length_b   6.89076573
_cell_length_c   3.45112395
_cell_angle_alpha   90.00000000
_cell_angle_beta   90.00000000
_cell_angle_gamma   90.00000000
_symmetry_Int_Tables_number   1
_chemical_formula_structural   Mo
_chemical_formula_sum   Mo16
_cell_volume   200.45974374
_cell_formula_units_Z   16
loop_
 _symmetry_equiv_pos_site_id
 _symmetry_equiv_pos_as_xyz
  1  'x, y, z'
loop_
 _atom_site_type_symbol
 _atom_site_label
 _atom_site_symmetry_multiplicity
 _atom_site_fract_x
 _atom_site_fract_y
 _atom_site_fract_z
 _atom_site_occupancy
  Mo  Mo0  1  1.94273000  2.32032000  0.29294200  1
  Mo  Mo1  1  1.93142000  0.60245200  2.03329000  1
  Mo  Mo2  1  -0.16467200  2.32952000  2.01685000  1
  Mo  Mo3  1  4.03619000  7.49649000  3.74783000  1
  Mo  Mo4  1  4.03613000  2.33010000  2.03006000  1
  Mo  Mo5  1  -0.15717600  4.04770000  3.74478000  1
  Mo  Mo6  1  1.95445000  5.76129000  0.30319700  1
  Mo  Mo7  1  1.95454000  4.05210000  2.01933000  1
  Mo  Mo8  1  -0.16065100  5.77882000  2.03169000  1
  Mo  Mo9  1  4.06770000  4.05556000  0.29468200  1
  Mo  Mo10  1  4.04856000  5.78228000  2.03368000  1
  Mo  Mo11  1  8.24695000  7.50420000  3.74686000  1
  Mo  Mo12  1  6.15933000  2.32333000  0.29995000  1
  Mo  Mo13  1  6.15230000  0.60030400  2.03286000  1
  Mo  Mo14  1  6.17226000  5.77091000  0.30315400  1
  Mo  Mo15  1  6.15048000  4.04462000  2.01772000  1
