# generated using pymatgen
data_Mo
_symmetry_space_group_name_H-M   'P 1'
_cell_length_a   8.52988502
_cell_length_b   6.88442075
_cell_length_c   3.42551780
_cell_angle_alpha   90.00000000
_cell_angle_beta   90.00000000
_cell_angle_gamma   90.00000000
_symmetry_Int_Tables_number   1
_chemical_formula_structural   Mo
_chemical_formula_sum   Mo16
_cell_volume   201.15776914
_cell_formula_units_Z   16
loop_
 _symmetry_equiv_pos_site_id
 _symmetry_equiv_pos_as_xyz
  1  'x, y, z'
loop_
 _atom_site_type_symbol
 _atom_site_label
 _atom_site_symmetry_multiplicity
 _atom_site_fract_x
 _atom_site_fract_y
 _atom_site_fract_z
 _atom_site_occupancy
  Mo  Mo0  1  1.91958000  2.33116000  0.30787300  1
  Mo  Mo1  1  1.93137000  0.61216400  2.02807000  1
  Mo  Mo2  1  -0.21198700  2.32825000  2.02403000  1
  Mo  Mo3  1  4.04959000  7.48974000  3.73312000  1
  Mo  Mo4  1  4.05338000  2.32833000  2.02816000  1
  Mo  Mo5  1  -0.21889500  4.05192000  3.73952000  1
  Mo  Mo6  1  1.91317000  5.76961000  0.31217700  1
  Mo  Mo7  1  1.91582000  4.05320000  2.02854000  1
  Mo  Mo8  1  -0.22259200  5.76341000  2.03028000  1
  Mo  Mo9  1  4.04100000  4.05133000  0.30761900  1
  Mo  Mo10  1  4.04708000  5.76363000  2.02187000  1
  Mo  Mo11  1  8.32295000  7.49478000  3.74002000  1
  Mo  Mo12  1  6.17951000  2.33184000  0.31170600  1
  Mo  Mo13  1  6.20196000  0.60929300  2.02744000  1
  Mo  Mo14  1  6.17268000  5.77408000  0.30703200  1
  Mo  Mo15  1  6.17549000  4.04724000  2.02702000  1
