# generated using pymatgen
data_Mo
_symmetry_space_group_name_H-M   'P 1'
_cell_length_a   7.46583310
_cell_length_b   7.20563850
_cell_length_c   3.60052276
_cell_angle_alpha   90.00000000
_cell_angle_beta   90.00000000
_cell_angle_gamma   90.00000000
_symmetry_Int_Tables_number   1
_chemical_formula_structural   Mo
_chemical_formula_sum   Mo16
_cell_volume   193.69406206
_cell_formula_units_Z   16
loop_
 _symmetry_equiv_pos_site_id
 _symmetry_equiv_pos_as_xyz
  1  'x, y, z'
loop_
 _atom_site_type_symbol
 _atom_site_label
 _atom_site_symmetry_multiplicity
 _atom_site_fract_x
 _atom_site_fract_y
 _atom_site_fract_z
 _atom_site_occupancy
  Mo  Mo0  1  0.31866400  7.64800000  3.81170000  1
  Mo  Mo1  1  2.18883000  2.25243000  0.23822700  1
  Mo  Mo2  1  2.18142000  0.45248100  2.01438000  1
  Mo  Mo3  1  0.32121100  2.25186000  2.04710000  1
  Mo  Mo4  1  4.06187000  7.64558000  3.80895000  1
  Mo  Mo5  1  5.92629000  2.24896000  0.23072700  1
  Mo  Mo6  1  5.91486000  0.45680400  2.01327000  1
  Mo  Mo7  1  4.05050000  2.24483000  2.03509000  1
  Mo  Mo8  1  7.77217000  4.04547000  0.22437200  1
  Mo  Mo9  1  2.17807000  5.85362000  0.22384000  1
  Mo  Mo10  1  2.17314000  4.05439000  2.02030000  1
  Mo  Mo11  1  0.31657000  5.84349000  2.03225000  1
  Mo  Mo12  1  4.05066000  4.04682000  0.22155300  1
  Mo  Mo13  1  5.92586000  5.85155000  3.82497000  1
  Mo  Mo14  1  5.90863000  4.05544000  2.02036000  1
  Mo  Mo15  1  4.04543000  5.84828000  2.03239000  1
