# generated using pymatgen
data_Mo
_symmetry_space_group_name_H-M   'P 1'
_cell_length_a   7.74676631
_cell_length_b   7.10411474
_cell_length_c   3.55271626
_cell_angle_alpha   90.00000000
_cell_angle_beta   90.00000000
_cell_angle_gamma   90.00000000
_symmetry_Int_Tables_number   1
_chemical_formula_structural   Mo
_chemical_formula_sum   Mo16
_cell_volume   195.51989068
_cell_formula_units_Z   16
loop_
 _symmetry_equiv_pos_site_id
 _symmetry_equiv_pos_as_xyz
  1  'x, y, z'
loop_
 _atom_site_type_symbol
 _atom_site_label
 _atom_site_symmetry_multiplicity
 _atom_site_fract_x
 _atom_site_fract_y
 _atom_site_fract_z
 _atom_site_occupancy
  Mo  Mo0  1  0.18077800  7.59660000  3.80826000  1
  Mo  Mo1  1  2.11319000  2.28305000  0.24250400  1
  Mo  Mo2  1  2.11827000  0.50076300  2.02862000  1
  Mo  Mo3  1  0.17454300  2.27558000  2.01780000  1
  Mo  Mo4  1  4.06271000  7.59714000  3.80901000  1
  Mo  Mo5  1  5.98968000  2.28373000  0.24543700  1
  Mo  Mo6  1  5.99299000  0.50204600  2.02819000  1
  Mo  Mo7  1  4.04982000  2.26795000  2.02136000  1
  Mo  Mo8  1  7.90866000  4.04182000  0.24716300  1
  Mo  Mo9  1  2.10027000  5.82548000  0.25465100  1
  Mo  Mo10  1  2.11291000  4.05714000  2.01354000  1
  Mo  Mo11  1  0.17240500  5.81777000  2.03135000  1
  Mo  Mo12  1  4.04486000  4.04310000  0.24816000  1
  Mo  Mo13  1  5.98914000  5.82691000  3.80743000  1
  Mo  Mo14  1  5.99683000  4.05497000  2.01281000  1
  Mo  Mo15  1  4.04616000  5.82595000  2.03100000  1
