# generated using pymatgen
data_Mo
_symmetry_space_group_name_H-M   'P 1'
_cell_length_a   7.72347659
_cell_length_b   7.11326170
_cell_length_c   3.55594325
_cell_angle_alpha   90.00000000
_cell_angle_beta   90.00000000
_cell_angle_gamma   90.00000000
_symmetry_Int_Tables_number   1
_chemical_formula_structural   Mo
_chemical_formula_sum   Mo16
_cell_volume   195.36035814
_cell_formula_units_Z   16
loop_
 _symmetry_equiv_pos_site_id
 _symmetry_equiv_pos_as_xyz
  1  'x, y, z'
loop_
 _atom_site_type_symbol
 _atom_site_label
 _atom_site_symmetry_multiplicity
 _atom_site_fract_x
 _atom_site_fract_y
 _atom_site_fract_z
 _atom_site_occupancy
  Mo  Mo0  1  0.18444800  7.59837000  3.79249000  1
  Mo  Mo1  1  2.11169000  2.27093000  0.25373700  1
  Mo  Mo2  1  2.11440000  0.49924900  2.01091000  1
  Mo  Mo3  1  0.17863000  2.27439000  2.02936000  1
  Mo  Mo4  1  4.04151000  7.60545000  3.79621000  1
  Mo  Mo5  1  5.97080000  2.27431000  0.26191900  1
  Mo  Mo6  1  5.97050000  0.49584700  2.01243000  1
  Mo  Mo7  1  4.04875000  2.27205000  2.04231000  1
  Mo  Mo8  1  7.91944000  4.04995000  0.24737100  1
  Mo  Mo9  1  2.11968000  5.82773000  0.24804600  1
  Mo  Mo10  1  2.13109000  4.05424000  2.02137000  1
  Mo  Mo11  1  0.19231500  5.82578000  2.02545000  1
  Mo  Mo12  1  4.05129000  4.04299000  0.25094400  1
  Mo  Mo13  1  5.97838000  5.82890000  3.80394000  1
  Mo  Mo14  1  6.00612000  4.05071000  2.02168000  1
  Mo  Mo15  1  4.05747000  5.82911000  2.02589000  1
