# generated using pymatgen
data_Mo
_symmetry_space_group_name_H-M   'P 1'
_cell_length_a   8.64633417
_cell_length_b   6.84377229
_cell_length_c   3.41544604
_cell_angle_alpha   90.00000000
_cell_angle_beta   90.00000000
_cell_angle_gamma   90.00000000
_symmetry_Int_Tables_number   1
_chemical_formula_structural   Mo
_chemical_formula_sum   Mo16
_cell_volume   202.10404066
_cell_formula_units_Z   16
loop_
 _symmetry_equiv_pos_site_id
 _symmetry_equiv_pos_as_xyz
  1  'x, y, z'
loop_
 _atom_site_type_symbol
 _atom_site_label
 _atom_site_symmetry_multiplicity
 _atom_site_fract_x
 _atom_site_fract_y
 _atom_site_fract_z
 _atom_site_occupancy
  Mo  Mo0  1  1.89337000  2.33484000  0.31098800  1
  Mo  Mo1  1  1.88388000  0.61618300  2.03949000  1
  Mo  Mo2  1  -0.27348500  2.34900000  2.01506000  1
  Mo  Mo3  1  4.06130000  7.47898000  3.74141000  1
  Mo  Mo4  1  4.04728000  2.34046000  2.01395000  1
  Mo  Mo5  1  -0.29387100  4.05516000  3.73171000  1
  Mo  Mo6  1  1.87814000  5.75964000  0.30965300  1
  Mo  Mo7  1  1.89095000  4.03836000  2.02900000  1
  Mo  Mo8  1  -0.27850400  5.76424000  2.01378000  1
  Mo  Mo9  1  4.04266000  4.06252000  0.32763300  1
  Mo  Mo10  1  4.04970000  5.77317000  2.02581000  1
  Mo  Mo11  1  8.37848000  7.47919000  3.73078000  1
  Mo  Mo12  1  6.21889000  2.32779000  0.30787000  1
  Mo  Mo13  1  6.22083000  0.62311600  2.04076000  1
  Mo  Mo14  1  6.22132000  5.75732000  0.31523300  1
  Mo  Mo15  1  6.21274000  4.04002000  2.03143000  1
