# generated using pymatgen
data_Mo
_symmetry_space_group_name_H-M   'P 1'
_cell_length_a   8.70455924
_cell_length_b   6.85074174
_cell_length_c   3.39717793
_cell_angle_alpha   90.00000000
_cell_angle_beta   90.00000000
_cell_angle_gamma   90.00000000
_symmetry_Int_Tables_number   1
_chemical_formula_structural   Mo
_chemical_formula_sum   Mo16
_cell_volume   202.58284957
_cell_formula_units_Z   16
loop_
 _symmetry_equiv_pos_site_id
 _symmetry_equiv_pos_as_xyz
  1  'x, y, z'
loop_
 _atom_site_type_symbol
 _atom_site_label
 _atom_site_symmetry_multiplicity
 _atom_site_fract_x
 _atom_site_fract_y
 _atom_site_fract_z
 _atom_site_occupancy
  Mo  Mo0  1  1.87799000  2.33487000  0.32661600  1
  Mo  Mo1  1  1.87525000  0.62732600  2.02292000  1
  Mo  Mo2  1  -0.30555400  2.33106000  2.02712000  1
  Mo  Mo3  1  4.06436000  7.47386000  3.72667000  1
  Mo  Mo4  1  4.06326000  2.33814000  2.02199000  1
  Mo  Mo5  1  -0.31386200  4.04954000  3.71916000  1
  Mo  Mo6  1  1.87406000  5.76815000  0.33192100  1
  Mo  Mo7  1  1.85267000  4.04865000  2.02603000  1
  Mo  Mo8  1  -0.31334000  5.76884000  2.02758000  1
  Mo  Mo9  1  4.03271000  4.04650000  0.31491300  1
  Mo  Mo10  1  4.05014000  5.76168000  2.02821000  1
  Mo  Mo11  1  8.41444000  7.47182000  3.73364000  1
  Mo  Mo12  1  6.24341000  2.34088000  0.32392500  1
  Mo  Mo13  1  6.23094000  0.62163000  2.01756000  1
  Mo  Mo14  1  6.22414000  5.76954000  0.33276600  1
  Mo  Mo15  1  6.22482000  4.04749000  2.02181000  1
