# generated using pymatgen
data_Mo
_symmetry_space_group_name_H-M   'P 1'
_cell_length_a   8.17180482
_cell_length_b   6.97301912
_cell_length_c   3.48683882
_cell_angle_alpha   90.00000000
_cell_angle_beta   90.00000000
_cell_angle_gamma   90.00000000
_symmetry_Int_Tables_number   1
_chemical_formula_structural   Mo
_chemical_formula_sum   Mo16
_cell_volume   198.68757697
_cell_formula_units_Z   16
loop_
 _symmetry_equiv_pos_site_id
 _symmetry_equiv_pos_as_xyz
  1  'x, y, z'
loop_
 _atom_site_type_symbol
 _atom_site_label
 _atom_site_symmetry_multiplicity
 _atom_site_fract_x
 _atom_site_fract_y
 _atom_site_fract_z
 _atom_site_occupancy
  Mo  Mo0  1  -0.04442590  7.52988000  3.76481000  1
  Mo  Mo1  1  2.00164000  2.30804000  0.28106500  1
  Mo  Mo2  1  1.99866000  0.56774100  2.01834000  1
  Mo  Mo3  1  -0.04457250  2.29888000  2.01807000  1
  Mo  Mo4  1  4.04262000  7.53612000  3.77028000  1
  Mo  Mo5  1  6.09276000  2.31281000  0.28926300  1
  Mo  Mo6  1  6.08113000  0.56264400  2.02221000  1
  Mo  Mo7  1  4.04963000  2.30203000  2.03496000  1
  Mo  Mo8  1  8.14033000  4.04839000  0.28778000  1
  Mo  Mo9  1  2.01088000  5.79664000  0.27538900  1
  Mo  Mo10  1  2.01187000  4.05548000  2.02993000  1
  Mo  Mo11  1  -0.03258430  5.79434000  2.01483000  1
  Mo  Mo12  1  4.05286000  4.04051000  0.29310200  1
  Mo  Mo13  1  6.09830000  5.79836000  3.76210000  1
  Mo  Mo14  1  6.11208000  4.05238000  2.03232000  1
  Mo  Mo15  1  4.05701000  5.79575000  2.01872000  1
