# generated using pymatgen
data_Mo
_symmetry_space_group_name_H-M   'P 1'
_cell_length_a   7.84138072
_cell_length_b   7.07438028
_cell_length_c   3.53713846
_cell_angle_alpha   90.00000000
_cell_angle_beta   90.00000000
_cell_angle_gamma   90.00000000
_symmetry_Int_Tables_number   1
_chemical_formula_structural   Mo
_chemical_formula_sum   Mo16
_cell_volume   196.21536034
_cell_formula_units_Z   16
loop_
 _symmetry_equiv_pos_site_id
 _symmetry_equiv_pos_as_xyz
  1  'x, y, z'
loop_
 _atom_site_type_symbol
 _atom_site_label
 _atom_site_symmetry_multiplicity
 _atom_site_fract_x
 _atom_site_fract_y
 _atom_site_fract_z
 _atom_site_occupancy
  Mo  Mo0  1  0.12587300  7.58298000  3.79891000  1
  Mo  Mo1  1  2.09103000  2.28949000  0.25413700  1
  Mo  Mo2  1  2.08861000  0.51192800  2.03214000  1
  Mo  Mo3  1  0.12724000  2.26853000  2.02023000  1
  Mo  Mo4  1  4.03566000  7.58754000  3.80078000  1
  Mo  Mo5  1  6.00278000  2.28677000  0.24880400  1
  Mo  Mo6  1  5.99895000  0.51455600  2.03334000  1
  Mo  Mo7  1  4.05335000  2.27394000  2.01110000  1
  Mo  Mo8  1  7.98886000  4.04724000  0.26999900  1
  Mo  Mo9  1  2.10228000  5.83186000  0.24933100  1
  Mo  Mo10  1  2.08701000  4.04752000  2.02700000  1
  Mo  Mo11  1  0.13442200  5.82204000  2.01725000  1
  Mo  Mo12  1  4.05107000  4.04409000  0.27172100  1
  Mo  Mo13  1  6.00640000  5.82144000  3.78529000  1
  Mo  Mo14  1  6.01006000  4.05732000  2.02860000  1
  Mo  Mo15  1  4.05502000  5.81276000  2.01423000  1
