# generated using pymatgen
data_Mo
_symmetry_space_group_name_H-M   'P 1'
_cell_length_a   8.06991217
_cell_length_b   7.00537264
_cell_length_c   3.50143075
_cell_angle_alpha   90.00000000
_cell_angle_beta   90.00000000
_cell_angle_gamma   90.00000000
_symmetry_Int_Tables_number   1
_chemical_formula_structural   Mo
_chemical_formula_sum   Mo16
_cell_volume   197.94548098
_cell_formula_units_Z   16
loop_
 _symmetry_equiv_pos_site_id
 _symmetry_equiv_pos_as_xyz
  1  'x, y, z'
loop_
 _atom_site_type_symbol
 _atom_site_label
 _atom_site_symmetry_multiplicity
 _atom_site_fract_x
 _atom_site_fract_y
 _atom_site_fract_z
 _atom_site_occupancy
  Mo  Mo0  1  0.01441400  7.55412000  3.78893000  1
  Mo  Mo1  1  2.03100000  2.30426000  0.26880400  1
  Mo  Mo2  1  2.01057000  0.55233500  2.02466000  1
  Mo  Mo3  1  0.01675390  2.29654000  2.02074000  1
  Mo  Mo4  1  4.05482000  7.54294000  3.77946000  1
  Mo  Mo5  1  6.07189000  2.30516000  0.27263500  1
  Mo  Mo6  1  6.06108000  0.54962800  2.02021000  1
  Mo  Mo7  1  4.04395000  2.29276000  2.02415000  1
  Mo  Mo8  1  8.08166000  4.04438000  0.29106400  1
  Mo  Mo9  1  2.03205000  5.80410000  0.26391000  1
  Mo  Mo10  1  2.04034000  4.05648000  2.04340000  1
  Mo  Mo11  1  0.01800050  5.79020000  2.01474000  1
  Mo  Mo12  1  4.05963000  4.05157000  0.28168300  1
  Mo  Mo13  1  6.07699000  5.81374000  3.76063000  1
  Mo  Mo14  1  6.06207000  4.04805000  2.03787000  1
  Mo  Mo15  1  4.05487000  5.79375000  2.00568000  1
