# generated using pymatgen
data_Mo
_symmetry_space_group_name_H-M   'P 1'
_cell_length_a   7.79480125
_cell_length_b   7.08886868
_cell_length_c   3.54470062
_cell_angle_alpha   90.00000000
_cell_angle_beta   90.00000000
_cell_angle_gamma   90.00000000
_symmetry_Int_Tables_number   1
_chemical_formula_structural   Mo
_chemical_formula_sum   Mo16
_cell_volume   195.86712052
_cell_formula_units_Z   16
loop_
 _symmetry_equiv_pos_site_id
 _symmetry_equiv_pos_as_xyz
  1  'x, y, z'
loop_
 _atom_site_type_symbol
 _atom_site_label
 _atom_site_symmetry_multiplicity
 _atom_site_fract_x
 _atom_site_fract_y
 _atom_site_fract_z
 _atom_site_occupancy
  Mo  Mo0  1  0.14048400  7.58620000  3.78823000  1
  Mo  Mo1  1  2.09769000  2.28468000  0.24873300  1
  Mo  Mo2  1  2.09080000  0.51122500  2.02878000  1
  Mo  Mo3  1  0.14617200  2.27129000  2.02653000  1
  Mo  Mo4  1  4.04764000  7.59062000  3.80012000  1
  Mo  Mo5  1  6.00152000  2.28096000  0.24754000  1
  Mo  Mo6  1  5.98331000  0.51458000  2.03361000  1
  Mo  Mo7  1  4.04350000  2.27126000  2.02583000  1
  Mo  Mo8  1  7.95349000  4.04643000  0.26257200  1
  Mo  Mo9  1  2.10595000  5.83498000  0.23329800  1
  Mo  Mo10  1  2.10398000  4.05221000  2.02944000  1
  Mo  Mo11  1  0.15784300  5.81248000  2.01258000  1
  Mo  Mo12  1  4.06223000  4.04693000  0.27477700  1
  Mo  Mo13  1  6.01117000  5.82653000  3.78447000  1
  Mo  Mo14  1  6.00847000  4.05865000  2.03529000  1
  Mo  Mo15  1  4.05096000  5.81098000  2.02351000  1
