# generated using pymatgen
data_Mo
_symmetry_space_group_name_H-M   'P 1'
_cell_length_a   8.14269277
_cell_length_b   6.98336542
_cell_length_c   3.49058008
_cell_angle_alpha   90.00000000
_cell_angle_beta   90.00000000
_cell_angle_gamma   90.00000000
_symmetry_Int_Tables_number   1
_chemical_formula_structural   Mo
_chemical_formula_sum   Mo16
_cell_volume   198.48624822
_cell_formula_units_Z   16
loop_
 _symmetry_equiv_pos_site_id
 _symmetry_equiv_pos_as_xyz
  1  'x, y, z'
loop_
 _atom_site_type_symbol
 _atom_site_label
 _atom_site_symmetry_multiplicity
 _atom_site_fract_x
 _atom_site_fract_y
 _atom_site_fract_z
 _atom_site_occupancy
  Mo  Mo0  1  -0.02965070  7.54753000  3.76915000  1
  Mo  Mo1  1  2.00569000  2.30782000  0.27460900  1
  Mo  Mo2  1  2.00460000  0.54999600  2.03657000  1
  Mo  Mo3  1  -0.02570610  2.30411000  2.02058000  1
  Mo  Mo4  1  4.03756000  7.54624000  3.76970000  1
  Mo  Mo5  1  6.07773000  2.29762000  0.27394700  1
  Mo  Mo6  1  6.09039000  0.55965400  2.03746000  1
  Mo  Mo7  1  4.05579000  2.29269000  2.01717000  1
  Mo  Mo8  1  8.13205000  4.05162000  0.29187800  1
  Mo  Mo9  1  2.01018000  5.79785000  0.27048400  1
  Mo  Mo10  1  2.01250000  4.04742000  2.03447000  1
  Mo  Mo11  1  -0.02249050  5.79550000  2.02045000  1
  Mo  Mo12  1  4.06269000  4.05492000  0.29254700  1
  Mo  Mo13  1  6.09167000  5.79519000  3.75553000  1
  Mo  Mo14  1  6.09162000  4.04929000  2.03487000  1
  Mo  Mo15  1  4.06269000  5.80255000  2.01001000  1
