# generated using pymatgen
data_Mo
_symmetry_space_group_name_H-M   'P 1'
_cell_length_a   7.48475596
_cell_length_b   7.19735765
_cell_length_c   3.59771442
_cell_angle_alpha   90.00000000
_cell_angle_beta   90.00000000
_cell_angle_gamma   90.00000000
_symmetry_Int_Tables_number   1
_chemical_formula_structural   Mo
_chemical_formula_sum   Mo16
_cell_volume   193.81055121
_cell_formula_units_Z   16
loop_
 _symmetry_equiv_pos_site_id
 _symmetry_equiv_pos_as_xyz
  1  'x, y, z'
loop_
 _atom_site_type_symbol
 _atom_site_label
 _atom_site_symmetry_multiplicity
 _atom_site_fract_x
 _atom_site_fract_y
 _atom_site_fract_z
 _atom_site_occupancy
  Mo  Mo0  1  0.30769300  7.64096000  3.81689000  1
  Mo  Mo1  1  2.17263000  2.25859000  0.22168400  1
  Mo  Mo2  1  2.16954000  0.45499300  2.03172000  1
  Mo  Mo3  1  0.29953300  2.23977000  2.02394000  1
  Mo  Mo4  1  4.04675000  7.64824000  3.82526000  1
  Mo  Mo5  1  5.92157000  2.25526000  0.22115500  1
  Mo  Mo6  1  5.91508000  0.45777900  2.03591000  1
  Mo  Mo7  1  4.05525000  2.25119000  2.02398000  1
  Mo  Mo8  1  7.79642000  4.04454000  0.21804700  1
  Mo  Mo9  1  2.18428000  5.85492000  0.22959500  1
  Mo  Mo10  1  2.18274000  4.05275000  2.01262000  1
  Mo  Mo11  1  0.30871900  5.85138000  2.03522000  1
  Mo  Mo12  1  4.04355000  4.04218000  0.22638200  1
  Mo  Mo13  1  5.91618000  5.84482000  3.82715000  1
  Mo  Mo14  1  5.93606000  4.06388000  2.01685000  1
  Mo  Mo15  1  4.05926000  5.83875000  2.03587000  1
