# generated using pymatgen
data_Mo
_symmetry_space_group_name_H-M   'P 1'
_cell_length_a   7.73366575
_cell_length_b   7.10878593
_cell_length_c   3.55472779
_cell_angle_alpha   90.00000000
_cell_angle_beta   90.00000000
_cell_angle_gamma   90.00000000
_symmetry_Int_Tables_number   1
_chemical_formula_structural   Mo
_chemical_formula_sum   Mo16
_cell_volume   195.42817831
_cell_formula_units_Z   16
loop_
 _symmetry_equiv_pos_site_id
 _symmetry_equiv_pos_as_xyz
  1  'x, y, z'
loop_
 _atom_site_type_symbol
 _atom_site_label
 _atom_site_symmetry_multiplicity
 _atom_site_fract_x
 _atom_site_fract_y
 _atom_site_fract_z
 _atom_site_occupancy
  Mo  Mo0  1  0.18968100  7.61456000  3.79891000  1
  Mo  Mo1  1  2.12553000  2.26784000  0.25372600  1
  Mo  Mo2  1  2.11532000  0.48717500  2.02831000  1
  Mo  Mo3  1  0.19210300  2.27827000  2.03299000  1
  Mo  Mo4  1  4.04640000  7.60568000  3.79321000  1
  Mo  Mo5  1  5.98384000  2.25946000  0.24629200  1
  Mo  Mo6  1  5.99037000  0.49433300  2.02634000  1
  Mo  Mo7  1  4.05115000  2.27361000  2.01978000  1
  Mo  Mo8  1  7.91699000  4.05327000  0.25056300  1
  Mo  Mo9  1  2.12080000  5.82610000  0.24704800  1
  Mo  Mo10  1  2.11396000  4.04293000  2.03085000  1
  Mo  Mo11  1  0.18065300  5.83149000  2.02639000  1
  Mo  Mo12  1  4.04818000  4.06111000  0.24495700  1
  Mo  Mo13  1  5.98178000  5.82653000  3.79791000  1
  Mo  Mo14  1  5.95978000  4.04482000  2.02939000  1
  Mo  Mo15  1  4.04980000  5.83283000  2.01862000  1
