# generated using pymatgen
data_Mo
_symmetry_space_group_name_H-M   'P 1'
_cell_length_a   7.72056518
_cell_length_b   7.11160225
_cell_length_c   3.55757213
_cell_angle_alpha   90.00000000
_cell_angle_beta   90.00000000
_cell_angle_gamma   90.00000000
_symmetry_Int_Tables_number   1
_chemical_formula_structural   Mo
_chemical_formula_sum   Mo16
_cell_volume   195.33059200
_cell_formula_units_Z   16
loop_
 _symmetry_equiv_pos_site_id
 _symmetry_equiv_pos_as_xyz
  1  'x, y, z'
loop_
 _atom_site_type_symbol
 _atom_site_label
 _atom_site_symmetry_multiplicity
 _atom_site_fract_x
 _atom_site_fract_y
 _atom_site_fract_z
 _atom_site_occupancy
  Mo  Mo0  1  0.18013700  7.59596000  3.80318000  1
  Mo  Mo1  1  2.10536000  2.27559000  0.24187100  1
  Mo  Mo2  1  2.11429000  0.50515400  2.01666000  1
  Mo  Mo3  1  0.18100600  2.26639000  2.02345000  1
  Mo  Mo4  1  4.04583000  7.60369000  3.80756000  1
  Mo  Mo5  1  5.97316000  2.28413000  0.25003400  1
  Mo  Mo6  1  5.97009000  0.49646300  2.01855000  1
  Mo  Mo7  1  4.04972000  2.27044000  2.03852000  1
  Mo  Mo8  1  7.92102000  4.04842000  0.24491500  1
  Mo  Mo9  1  2.11786000  5.82794000  0.23997100  1
  Mo  Mo10  1  2.12480000  4.05939000  2.02893000  1
  Mo  Mo11  1  0.19548500  5.82091000  2.01979000  1
  Mo  Mo12  1  4.06089000  4.03946000  0.24919900  1
  Mo  Mo13  1  5.98020000  5.83099000  3.80144000  1
  Mo  Mo14  1  6.00293000  4.05401000  2.03008000  1
  Mo  Mo15  1  4.05664000  5.82106000  2.02829000  1
