# generated using pymatgen
data_Mo
_symmetry_space_group_name_H-M   'P 1'
_cell_length_a   7.96656311
_cell_length_b   7.03548741
_cell_length_c   3.51755977
_cell_angle_alpha   90.00000000
_cell_angle_beta   90.00000000
_cell_angle_gamma   90.00000000
_symmetry_Int_Tables_number   1
_chemical_formula_structural   Mo
_chemical_formula_sum   Mo16
_cell_volume   197.15449190
_cell_formula_units_Z   16
loop_
 _symmetry_equiv_pos_site_id
 _symmetry_equiv_pos_as_xyz
  1  'x, y, z'
loop_
 _atom_site_type_symbol
 _atom_site_label
 _atom_site_symmetry_multiplicity
 _atom_site_fract_x
 _atom_site_fract_y
 _atom_site_fract_z
 _atom_site_occupancy
  Mo  Mo0  1  0.07237090  7.56478000  3.78339000  1
  Mo  Mo1  1  2.05456000  2.29751000  0.26226800  1
  Mo  Mo2  1  2.07510000  0.53376500  2.03264000  1
  Mo  Mo3  1  0.07345370  2.28616000  2.02558000  1
  Mo  Mo4  1  4.06842000  7.57128000  3.77810000  1
  Mo  Mo5  1  6.04502000  2.30092000  0.26369000  1
  Mo  Mo6  1  6.04619000  0.53321300  2.02983000  1
  Mo  Mo7  1  4.05461000  2.28785000  2.02435000  1
  Mo  Mo8  1  8.02387000  4.05197000  0.27857700  1
  Mo  Mo9  1  2.04577000  5.81065000  0.25798800  1
  Mo  Mo10  1  2.04591000  4.05021000  2.03554000  1
  Mo  Mo11  1  0.06783510  5.80459000  2.02519000  1
  Mo  Mo12  1  4.04664000  4.04635000  0.27314400  1
  Mo  Mo13  1  6.03443000  5.80648000  3.76908000  1
  Mo  Mo14  1  6.03831000  4.05426000  2.03126000  1
  Mo  Mo15  1  4.04096000  5.80002000  2.01182000  1
