# generated using pymatgen
data_Mo
_symmetry_space_group_name_H-M   'P 1'
_cell_length_a   7.70455323
_cell_length_b   7.11786708
_cell_length_c   3.55987477
_cell_angle_alpha   90.00000000
_cell_angle_beta   90.00000000
_cell_angle_gamma   90.00000000
_symmetry_Int_Tables_number   1
_chemical_formula_structural   Mo
_chemical_formula_sum   Mo16
_cell_volume   195.22348211
_cell_formula_units_Z   16
loop_
 _symmetry_equiv_pos_site_id
 _symmetry_equiv_pos_as_xyz
  1  'x, y, z'
loop_
 _atom_site_type_symbol
 _atom_site_label
 _atom_site_symmetry_multiplicity
 _atom_site_fract_x
 _atom_site_fract_y
 _atom_site_fract_z
 _atom_site_occupancy
  Mo  Mo0  1  0.21292400  7.61342000  3.80176000  1
  Mo  Mo1  1  2.13681000  2.26055000  0.25134300  1
  Mo  Mo2  1  2.13194000  0.48350200  2.02847000  1
  Mo  Mo3  1  0.20422700  2.27738000  2.02626000  1
  Mo  Mo4  1  4.05942000  7.61465000  3.79860000  1
  Mo  Mo5  1  5.97847000  2.25970000  0.24863300  1
  Mo  Mo6  1  5.97233000  0.48649200  2.02632000  1
  Mo  Mo7  1  4.05421000  2.27527000  2.01933000  1
  Mo  Mo8  1  7.89226000  4.05490000  0.24021800  1
  Mo  Mo9  1  2.12356000  5.82844000  0.25920300  1
  Mo  Mo10  1  2.11810000  4.04152000  2.01198000  1
  Mo  Mo11  1  0.19808600  5.83968000  2.03673000  1
  Mo  Mo12  1  4.03161000  4.05544000  0.23675300  1
  Mo  Mo13  1  5.96932000  5.82420000  3.81579000  1
  Mo  Mo14  1  5.96688000  4.04606000  2.00978000  1
  Mo  Mo15  1  4.04531000  5.83879000  2.02895000  1
