# generated using pymatgen
data_Mo
_symmetry_space_group_name_H-M   'P 1'
_cell_length_a   8.04662196
_cell_length_b   7.01124406
_cell_length_c   3.50543714
_cell_angle_alpha   90.00000000
_cell_angle_beta   90.00000000
_cell_angle_gamma   90.00000000
_symmetry_Int_Tables_number   1
_chemical_formula_structural   Mo
_chemical_formula_sum   Mo16
_cell_volume   197.76565229
_cell_formula_units_Z   16
loop_
 _symmetry_equiv_pos_site_id
 _symmetry_equiv_pos_as_xyz
  1  'x, y, z'
loop_
 _atom_site_type_symbol
 _atom_site_label
 _atom_site_symmetry_multiplicity
 _atom_site_fract_x
 _atom_site_fract_y
 _atom_site_fract_z
 _atom_site_occupancy
  Mo  Mo0  1  0.03433790  7.55193000  3.79148000  1
  Mo  Mo1  1  2.04079000  2.30178000  0.25854500  1
  Mo  Mo2  1  2.04628000  0.55442500  2.02887000  1
  Mo  Mo3  1  0.03085820  2.28364000  2.01716000  1
  Mo  Mo4  1  4.06866000  7.55196000  3.78766000  1
  Mo  Mo5  1  6.07465000  2.31223000  0.26332400  1
  Mo  Mo6  1  6.06569000  0.54418900  2.02720000  1
  Mo  Mo7  1  4.04721000  2.29827000  2.02553000  1
  Mo  Mo8  1  8.05731000  4.04623000  0.27783400  1
  Mo  Mo9  1  2.03646000  5.80581000  0.26276400  1
  Mo  Mo10  1  2.03728000  4.05707000  2.03853000  1
  Mo  Mo11  1  0.02476500  5.79722000  2.01939000  1
  Mo  Mo12  1  4.03855000  4.04407000  0.27414800  1
  Mo  Mo13  1  6.05640000  5.80874000  3.76718000  1
  Mo  Mo14  1  6.05570000  4.05583000  2.03595000  1
  Mo  Mo15  1  4.03846000  5.78662000  2.01900000  1
