# generated using pymatgen
data_Mo
_symmetry_space_group_name_H-M   'P 1'
_cell_length_a   7.29789726
_cell_length_b   7.29789726
_cell_length_c   3.64894867
_cell_angle_alpha   90.00000000
_cell_angle_beta   90.00000000
_cell_angle_gamma   90.00000000
_symmetry_Int_Tables_number   1
_chemical_formula_structural   Mo
_chemical_formula_sum   Mo16
_cell_volume   194.34046797
_cell_formula_units_Z   16
loop_
 _symmetry_equiv_pos_site_id
 _symmetry_equiv_pos_as_xyz
  1  'x, y, z'
loop_
 _atom_site_type_symbol
 _atom_site_label
 _atom_site_symmetry_multiplicity
 _atom_site_fract_x
 _atom_site_fract_y
 _atom_site_fract_z
 _atom_site_occupancy
  Mo  Mo0  1  7.21717000  -0.01389040  0.09004500  1
  Mo  Mo1  1  1.75589000  1.82095000  -0.10913400  1
  Mo  Mo2  1  1.68099000  7.13211000  1.80109000  1
  Mo  Mo3  1  7.27372000  1.88034000  1.79395000  1
  Mo  Mo4  1  3.63359000  7.42566000  3.74001000  1
  Mo  Mo5  1  5.51512000  1.74494000  -0.00653309  1
  Mo  Mo6  1  5.43843000  7.39715000  1.88562000  1
  Mo  Mo7  1  3.50753000  1.80427000  1.90326000  1
  Mo  Mo8  1  7.36381000  3.72247000  3.56785000  1
  Mo  Mo9  1  1.78806000  5.52797000  -0.05592680  1
  Mo  Mo10  1  2.04122000  3.70719000  1.79727000  1
  Mo  Mo11  1  7.20592000  5.40665000  1.81584000  1
  Mo  Mo12  1  3.62942000  3.59459000  0.07024890  1
  Mo  Mo13  1  5.58847000  5.42294000  3.61533000  1
  Mo  Mo14  1  5.44322000  3.60053000  1.72354000  1
  Mo  Mo15  1  3.73724000  5.34802000  1.83058000  1
