# generated using pymatgen
data_Mo
_symmetry_space_group_name_H-M   'P 1'
_cell_length_a   7.29789726
_cell_length_b   7.29789726
_cell_length_c   3.64894867
_cell_angle_alpha   90.00000000
_cell_angle_beta   90.00000000
_cell_angle_gamma   90.00000000
_symmetry_Int_Tables_number   1
_chemical_formula_structural   Mo
_chemical_formula_sum   Mo16
_cell_volume   194.34046797
_cell_formula_units_Z   16
loop_
 _symmetry_equiv_pos_site_id
 _symmetry_equiv_pos_as_xyz
  1  'x, y, z'
loop_
 _atom_site_type_symbol
 _atom_site_label
 _atom_site_symmetry_multiplicity
 _atom_site_fract_x
 _atom_site_fract_y
 _atom_site_fract_z
 _atom_site_occupancy
  Mo  Mo0  1  7.31693000  -0.00591663  0.03738000  1
  Mo  Mo1  1  1.63392000  1.79865000  -0.10094600  1
  Mo  Mo2  1  1.89683000  7.08516000  1.70127000  1
  Mo  Mo3  1  7.24345000  1.85517000  1.79144000  1
  Mo  Mo4  1  3.73660000  7.42499000  3.63260000  1
  Mo  Mo5  1  5.63376000  1.97829000  0.02081270  1
  Mo  Mo6  1  5.50745000  7.22038000  1.85209000  1
  Mo  Mo7  1  3.57918000  1.73748000  1.82547000  1
  Mo  Mo8  1  7.26798000  3.79484000  3.66229000  1
  Mo  Mo9  1  2.00558000  5.41576000  -0.01909190  1
  Mo  Mo10  1  1.78419000  3.74699000  1.66202000  1
  Mo  Mo11  1  7.19133000  5.50344000  1.90832000  1
  Mo  Mo12  1  3.46551000  3.46403000  -0.06800310  1
  Mo  Mo13  1  5.41698000  5.48155000  3.84708000  1
  Mo  Mo14  1  5.29087000  3.54664000  1.89076000  1
  Mo  Mo15  1  3.84922000  5.47446000  1.81957000  1
