# generated using pymatgen
data_Mo
_symmetry_space_group_name_H-M   'P 1'
_cell_length_a   7.31012717
_cell_length_b   7.31012717
_cell_length_c   3.65506363
_cell_angle_alpha   90.00000000
_cell_angle_beta   90.00000000
_cell_angle_gamma   90.00000000
_symmetry_Int_Tables_number   1
_chemical_formula_structural   Mo
_chemical_formula_sum   Mo16
_cell_volume   195.31914108
_cell_formula_units_Z   16
loop_
 _symmetry_equiv_pos_site_id
 _symmetry_equiv_pos_as_xyz
  1  'x, y, z'
loop_
 _atom_site_type_symbol
 _atom_site_label
 _atom_site_symmetry_multiplicity
 _atom_site_fract_x
 _atom_site_fract_y
 _atom_site_fract_z
 _atom_site_occupancy
  Mo  Mo0  1  7.24926000  -0.20572100  3.74051000  1
  Mo  Mo1  1  1.75568000  1.75444000  3.62271000  1
  Mo  Mo2  1  1.92273000  0.14104200  1.84306000  1
  Mo  Mo3  1  7.23474000  1.80069000  1.89255000  1
  Mo  Mo4  1  3.58859000  7.22309000  0.06768500  1
  Mo  Mo5  1  5.54526000  1.90228000  3.73183000  1
  Mo  Mo6  1  5.32009000  7.23515000  1.78788000  1
  Mo  Mo7  1  3.67819000  1.75315000  1.69082000  1
  Mo  Mo8  1  0.07268410  3.66193000  3.61220000  1
  Mo  Mo9  1  1.89668000  5.50976000  3.62388000  1
  Mo  Mo10  1  1.89943000  3.53529000  1.74638000  1
  Mo  Mo11  1  -0.04445110  5.32488000  1.78847000  1
  Mo  Mo12  1  3.59595000  3.81881000  -0.02759220  1
  Mo  Mo13  1  5.50443000  5.51588000  -0.11739200  1
  Mo  Mo14  1  5.49615000  3.70384000  1.91732000  1
  Mo  Mo15  1  3.50860000  5.54949000  1.84675000  1
