# generated using pymatgen
data_Mo
_symmetry_space_group_name_H-M   'P 1'
_cell_length_a   7.31012717
_cell_length_b   7.31012717
_cell_length_c   3.65506363
_cell_angle_alpha   90.00000000
_cell_angle_beta   90.00000000
_cell_angle_gamma   90.00000000
_symmetry_Int_Tables_number   1
_chemical_formula_structural   Mo
_chemical_formula_sum   Mo16
_cell_volume   195.31914108
_cell_formula_units_Z   16
loop_
 _symmetry_equiv_pos_site_id
 _symmetry_equiv_pos_as_xyz
  1  'x, y, z'
loop_
 _atom_site_type_symbol
 _atom_site_label
 _atom_site_symmetry_multiplicity
 _atom_site_fract_x
 _atom_site_fract_y
 _atom_site_fract_z
 _atom_site_occupancy
  Mo  Mo0  1  7.21549000  -0.10931500  3.62213000  1
  Mo  Mo1  1  1.66621000  1.69309000  3.73307000  1
  Mo  Mo2  1  1.85000000  0.04817790  1.86000000  1
  Mo  Mo3  1  7.26631000  1.72419000  1.86834000  1
  Mo  Mo4  1  3.66969000  7.40376000  -0.13578300  1
  Mo  Mo5  1  5.52315000  1.78052000  3.55921000  1
  Mo  Mo6  1  5.47638000  7.30008000  1.65646000  1
  Mo  Mo7  1  3.58608000  1.79679000  1.89574000  1
  Mo  Mo8  1  -0.03587330  3.59990000  3.62903000  1
  Mo  Mo9  1  1.91080000  5.63566000  3.67211000  1
  Mo  Mo10  1  1.94660000  3.80975000  1.87694000  1
  Mo  Mo11  1  -0.06308980  5.48329000  1.70175000  1
  Mo  Mo12  1  3.59900000  3.58075000  0.08544730  1
  Mo  Mo13  1  5.47579000  5.57960000  -0.04957060  1
  Mo  Mo14  1  5.51106000  3.55281000  1.91819000  1
  Mo  Mo15  1  3.62640000  5.34495000  1.87400000  1
