# generated using pymatgen
data_Mo
_symmetry_space_group_name_H-M   'P 1'
_cell_length_a   7.31012717
_cell_length_b   7.31012717
_cell_length_c   3.65506363
_cell_angle_alpha   90.00000000
_cell_angle_beta   90.00000000
_cell_angle_gamma   90.00000000
_symmetry_Int_Tables_number   1
_chemical_formula_structural   Mo
_chemical_formula_sum   Mo16
_cell_volume   195.31914108
_cell_formula_units_Z   16
loop_
 _symmetry_equiv_pos_site_id
 _symmetry_equiv_pos_as_xyz
  1  'x, y, z'
loop_
 _atom_site_type_symbol
 _atom_site_label
 _atom_site_symmetry_multiplicity
 _atom_site_fract_x
 _atom_site_fract_y
 _atom_site_fract_z
 _atom_site_occupancy
  Mo  Mo0  1  7.30624000  -0.07409880  3.77776000  1
  Mo  Mo1  1  1.71110000  1.63831000  3.52844000  1
  Mo  Mo2  1  1.80262000  -0.27451700  1.73845000  1
  Mo  Mo3  1  7.39141000  1.72689000  1.76161000  1
  Mo  Mo4  1  3.57166000  7.45393000  0.15493000  1
  Mo  Mo5  1  5.61316000  1.70122000  3.71320000  1
  Mo  Mo6  1  5.52535000  7.43167000  1.91753000  1
  Mo  Mo7  1  3.67489000  1.94073000  1.73549000  1
  Mo  Mo8  1  -0.00720934  3.68640000  3.70417000  1
  Mo  Mo9  1  1.85462000  5.57487000  3.63060000  1
  Mo  Mo10  1  1.86062000  3.54727000  1.71873000  1
  Mo  Mo11  1  -0.04854110  5.44664000  1.97561000  1
  Mo  Mo12  1  3.63004000  3.58053000  -0.13957200  1
  Mo  Mo13  1  5.37305000  5.55533000  0.00622260  1
  Mo  Mo14  1  5.32848000  3.74952000  1.69015000  1
  Mo  Mo15  1  3.63651000  5.53928000  1.85374000  1
