# generated using pymatgen
data_Mo
_symmetry_space_group_name_H-M   'P 1'
_cell_length_a   7.31012717
_cell_length_b   7.31012717
_cell_length_c   3.65506363
_cell_angle_alpha   90.00000000
_cell_angle_beta   90.00000000
_cell_angle_gamma   90.00000000
_symmetry_Int_Tables_number   1
_chemical_formula_structural   Mo
_chemical_formula_sum   Mo16
_cell_volume   195.31914108
_cell_formula_units_Z   16
loop_
 _symmetry_equiv_pos_site_id
 _symmetry_equiv_pos_as_xyz
  1  'x, y, z'
loop_
 _atom_site_type_symbol
 _atom_site_label
 _atom_site_symmetry_multiplicity
 _atom_site_fract_x
 _atom_site_fract_y
 _atom_site_fract_z
 _atom_site_occupancy
  Mo  Mo0  1  7.19402000  0.10937200  3.71251000  1
  Mo  Mo1  1  1.80047000  1.87511000  3.68321000  1
  Mo  Mo2  1  1.77342000  0.03998270  1.56414000  1
  Mo  Mo3  1  7.25030000  2.06018000  1.83243000  1
  Mo  Mo4  1  3.70663000  7.19984000  -0.00926867  1
  Mo  Mo5  1  5.37146000  1.86018000  3.64327000  1
  Mo  Mo6  1  5.53379000  7.03871000  1.80231000  1
  Mo  Mo7  1  3.66834000  1.59579000  1.77198000  1
  Mo  Mo8  1  -0.04114680  3.61720000  3.63081000  1
  Mo  Mo9  1  1.90100000  5.55484000  3.55714000  1
  Mo  Mo10  1  1.91777000  3.82082000  1.83257000  1
  Mo  Mo11  1  0.05160940  5.35592000  1.74758000  1
  Mo  Mo12  1  3.62797000  3.54346000  0.19447100  1
  Mo  Mo13  1  5.46990000  5.42584000  0.15819600  1
  Mo  Mo14  1  5.36856000  3.68655000  1.93862000  1
  Mo  Mo15  1  3.62990000  5.44023000  1.70709000  1
