# generated using pymatgen
data_Mo
_symmetry_space_group_name_H-M   'P 1'
_cell_length_a   7.31012717
_cell_length_b   7.31012717
_cell_length_c   3.65506363
_cell_angle_alpha   90.00000000
_cell_angle_beta   90.00000000
_cell_angle_gamma   90.00000000
_symmetry_Int_Tables_number   1
_chemical_formula_structural   Mo
_chemical_formula_sum   Mo16
_cell_volume   195.31914108
_cell_formula_units_Z   16
loop_
 _symmetry_equiv_pos_site_id
 _symmetry_equiv_pos_as_xyz
  1  'x, y, z'
loop_
 _atom_site_type_symbol
 _atom_site_label
 _atom_site_symmetry_multiplicity
 _atom_site_fract_x
 _atom_site_fract_y
 _atom_site_fract_z
 _atom_site_occupancy
  Mo  Mo0  1  7.05377000  -0.07225020  3.69610000  1
  Mo  Mo1  1  1.68884000  1.79882000  3.69512000  1
  Mo  Mo2  1  1.66644000  -0.07972790  1.95806000  1
  Mo  Mo3  1  7.29612000  1.86382000  1.92952000  1
  Mo  Mo4  1  3.62814000  7.45475000  0.00782949  1
  Mo  Mo5  1  5.50548000  1.82873000  3.56104000  1
  Mo  Mo6  1  5.40180000  7.29302000  1.73749000  1
  Mo  Mo7  1  3.56078000  1.77885000  1.67785000  1
  Mo  Mo8  1  0.21795000  3.74592000  3.64516000  1
  Mo  Mo9  1  2.01436000  5.48495000  3.76651000  1
  Mo  Mo10  1  1.98725000  3.70541000  1.69176000  1
  Mo  Mo11  1  -0.01435690  5.37866000  1.82702000  1
  Mo  Mo12  1  3.69508000  3.56932000  0.04945340  1
  Mo  Mo13  1  5.41365000  5.36487000  0.04405100  1
  Mo  Mo14  1  5.43358000  3.46385000  1.77755000  1
  Mo  Mo15  1  3.67510000  5.64499000  1.70257000  1
