# generated using pymatgen
data_Mo
_symmetry_space_group_name_H-M   'P 1'
_cell_length_a   7.31012717
_cell_length_b   7.31012717
_cell_length_c   3.65506363
_cell_angle_alpha   90.00000000
_cell_angle_beta   90.00000000
_cell_angle_gamma   90.00000000
_symmetry_Int_Tables_number   1
_chemical_formula_structural   Mo
_chemical_formula_sum   Mo16
_cell_volume   195.31914108
_cell_formula_units_Z   16
loop_
 _symmetry_equiv_pos_site_id
 _symmetry_equiv_pos_as_xyz
  1  'x, y, z'
loop_
 _atom_site_type_symbol
 _atom_site_label
 _atom_site_symmetry_multiplicity
 _atom_site_fract_x
 _atom_site_fract_y
 _atom_site_fract_z
 _atom_site_occupancy
  Mo  Mo0  1  7.54030000  0.03630840  3.65144000  1
  Mo  Mo1  1  1.85684000  1.97966000  3.72241000  1
  Mo  Mo2  1  1.84983000  -0.14612600  1.79849000  1
  Mo  Mo3  1  7.23333000  1.85620000  1.89828000  1
  Mo  Mo4  1  3.51655000  7.32707000  -0.02402180  1
  Mo  Mo5  1  5.44567000  1.75172000  3.64518000  1
  Mo  Mo6  1  5.47872000  7.29527000  1.85934000  1
  Mo  Mo7  1  3.72745000  1.98640000  1.85727000  1
  Mo  Mo8  1  -0.08476380  3.64298000  3.69969000  1
  Mo  Mo9  1  1.89256000  5.35098000  3.62040000  1
  Mo  Mo10  1  1.72948000  3.69803000  1.85084000  1
  Mo  Mo11  1  -0.09590340  5.31488000  1.68165000  1
  Mo  Mo12  1  3.65239000  3.59861000  -0.08324860  1
  Mo  Mo13  1  5.30122000  5.57785000  -0.01756150  1
  Mo  Mo14  1  5.55009000  3.57579000  1.78899000  1
  Mo  Mo15  1  3.63025000  5.37838000  1.81792000  1
