# generated using pymatgen
data_Mo
_symmetry_space_group_name_H-M   'P 1'
_cell_length_a   7.31012717
_cell_length_b   7.31012717
_cell_length_c   3.65506363
_cell_angle_alpha   90.00000000
_cell_angle_beta   90.00000000
_cell_angle_gamma   90.00000000
_symmetry_Int_Tables_number   1
_chemical_formula_structural   Mo
_chemical_formula_sum   Mo16
_cell_volume   195.31914108
_cell_formula_units_Z   16
loop_
 _symmetry_equiv_pos_site_id
 _symmetry_equiv_pos_as_xyz
  1  'x, y, z'
loop_
 _atom_site_type_symbol
 _atom_site_label
 _atom_site_symmetry_multiplicity
 _atom_site_fract_x
 _atom_site_fract_y
 _atom_site_fract_z
 _atom_site_occupancy
  Mo  Mo0  1  7.36188000  -0.13069700  3.57984000  1
  Mo  Mo1  1  1.81533000  1.76148000  3.66065000  1
  Mo  Mo2  1  1.89084000  0.01314800  1.78469000  1
  Mo  Mo3  1  7.29520000  1.85439000  1.68892000  1
  Mo  Mo4  1  3.76980000  7.28748000  0.02343900  1
  Mo  Mo5  1  5.41703000  1.91714000  3.65009000  1
  Mo  Mo6  1  5.40880000  7.31241000  1.91465000  1
  Mo  Mo7  1  3.68076000  1.83547000  1.85590000  1
  Mo  Mo8  1  0.00560064  3.87531000  3.57449000  1
  Mo  Mo9  1  1.82010000  5.58474000  3.64508000  1
  Mo  Mo10  1  1.78445000  3.56832000  1.83451000  1
  Mo  Mo11  1  0.10938600  5.52833000  1.93747000  1
  Mo  Mo12  1  3.55959000  3.49477000  0.09031080  1
  Mo  Mo13  1  5.39118000  5.34620000  -0.05679190  1
  Mo  Mo14  1  5.35097000  3.65919000  1.84441000  1
  Mo  Mo15  1  3.56309000  5.31632000  1.73942000  1
