# generated using pymatgen
data_Mo
_symmetry_space_group_name_H-M   'P 1'
_cell_length_a   7.31012717
_cell_length_b   7.31012717
_cell_length_c   3.65506363
_cell_angle_alpha   90.00000000
_cell_angle_beta   90.00000000
_cell_angle_gamma   90.00000000
_symmetry_Int_Tables_number   1
_chemical_formula_structural   Mo
_chemical_formula_sum   Mo16
_cell_volume   195.31914108
_cell_formula_units_Z   16
loop_
 _symmetry_equiv_pos_site_id
 _symmetry_equiv_pos_as_xyz
  1  'x, y, z'
loop_
 _atom_site_type_symbol
 _atom_site_label
 _atom_site_symmetry_multiplicity
 _atom_site_fract_x
 _atom_site_fract_y
 _atom_site_fract_z
 _atom_site_occupancy
  Mo  Mo0  1  7.38553000  -0.09511800  3.55361000  1
  Mo  Mo1  1  1.89532000  1.77204000  3.74238000  1
  Mo  Mo2  1  1.68585000  -0.22192700  1.80545000  1
  Mo  Mo3  1  7.48270000  1.92436000  1.92746000  1
  Mo  Mo4  1  3.54555000  7.32741000  -0.18098500  1
  Mo  Mo5  1  5.58474000  1.74191000  3.81717000  1
  Mo  Mo6  1  5.44913000  7.26893000  1.84525000  1
  Mo  Mo7  1  3.49010000  1.87075000  1.88032000  1
  Mo  Mo8  1  -0.09909550  3.66810000  3.67508000  1
  Mo  Mo9  1  1.83876000  5.40944000  3.67069000  1
  Mo  Mo10  1  1.79573000  3.74110000  1.84758000  1
  Mo  Mo11  1  -0.11356400  5.35602000  1.89488000  1
  Mo  Mo12  1  3.77020000  3.70383000  -0.18394900  1
  Mo  Mo13  1  5.37858000  5.64267000  -0.01458910  1
  Mo  Mo14  1  5.45812000  3.59692000  1.84944000  1
  Mo  Mo15  1  3.67634000  5.51758000  1.63726000  1
