# generated using pymatgen
data_Mo
_symmetry_space_group_name_H-M   'P 1'
_cell_length_a   7.31012717
_cell_length_b   7.31012717
_cell_length_c   3.65506363
_cell_angle_alpha   90.00000000
_cell_angle_beta   90.00000000
_cell_angle_gamma   90.00000000
_symmetry_Int_Tables_number   1
_chemical_formula_structural   Mo
_chemical_formula_sum   Mo16
_cell_volume   195.31914108
_cell_formula_units_Z   16
loop_
 _symmetry_equiv_pos_site_id
 _symmetry_equiv_pos_as_xyz
  1  'x, y, z'
loop_
 _atom_site_type_symbol
 _atom_site_label
 _atom_site_symmetry_multiplicity
 _atom_site_fract_x
 _atom_site_fract_y
 _atom_site_fract_z
 _atom_site_occupancy
  Mo  Mo0  1  7.27063000  -0.05059180  3.68285000  1
  Mo  Mo1  1  1.84375000  1.66532000  3.71996000  1
  Mo  Mo2  1  1.97751000  -0.21554500  1.84203000  1
  Mo  Mo3  1  7.30562000  1.84155000  1.74331000  1
  Mo  Mo4  1  3.77988000  7.28748000  -0.02671860  1
  Mo  Mo5  1  5.51457000  2.02624000  3.72453000  1
  Mo  Mo6  1  5.56554000  7.36849000  1.79902000  1
  Mo  Mo7  1  3.77578000  1.86915000  1.88488000  1
  Mo  Mo8  1  -0.05479390  3.74300000  3.56434000  1
  Mo  Mo9  1  1.76064000  5.47841000  3.64716000  1
  Mo  Mo10  1  1.70926000  3.62152000  1.80685000  1
  Mo  Mo11  1  0.03811330  5.51735000  1.81749000  1
  Mo  Mo12  1  3.36824000  3.62336000  0.01825930  1
  Mo  Mo13  1  5.27054000  5.45024000  -0.00400665  1
  Mo  Mo14  1  5.52363000  3.59267000  1.72736000  1
  Mo  Mo15  1  3.57509000  5.40536000  1.81973000  1
