# generated using pymatgen
data_Mo
_symmetry_space_group_name_H-M   'P 1'
_cell_length_a   7.29789726
_cell_length_b   7.29789726
_cell_length_c   3.64894867
_cell_angle_alpha   90.00000000
_cell_angle_beta   90.00000000
_cell_angle_gamma   90.00000000
_symmetry_Int_Tables_number   1
_chemical_formula_structural   Mo
_chemical_formula_sum   Mo16
_cell_volume   194.34046797
_cell_formula_units_Z   16
loop_
 _symmetry_equiv_pos_site_id
 _symmetry_equiv_pos_as_xyz
  1  'x, y, z'
loop_
 _atom_site_type_symbol
 _atom_site_label
 _atom_site_symmetry_multiplicity
 _atom_site_fract_x
 _atom_site_fract_y
 _atom_site_fract_z
 _atom_site_occupancy
  Mo  Mo0  1  7.23669000  0.02127570  0.01838270  1
  Mo  Mo1  1  1.82445000  1.80052000  0.06744210  1
  Mo  Mo2  1  1.86211000  7.08641000  1.75260000  1
  Mo  Mo3  1  7.49492000  1.77856000  1.87427000  1
  Mo  Mo4  1  3.65306000  7.22662000  3.71705000  1
  Mo  Mo5  1  5.39683000  1.78241000  -0.03310920  1
  Mo  Mo6  1  5.28251000  7.45071000  1.79749000  1
  Mo  Mo7  1  3.57308000  1.77065000  1.72221000  1
  Mo  Mo8  1  7.23686000  3.66837000  3.69364000  1
  Mo  Mo9  1  1.72262000  5.54533000  -0.08295670  1
  Mo  Mo10  1  1.94938000  3.68429000  1.78072000  1
  Mo  Mo11  1  7.15736000  5.54156000  1.80529000  1
  Mo  Mo12  1  3.67437000  3.75507000  -0.09134740  1
  Mo  Mo13  1  5.51240000  5.46014000  3.73449000  1
  Mo  Mo14  1  5.47740000  3.59991000  1.87999000  1
  Mo  Mo15  1  3.76575000  5.35008000  1.82688000  1
