# generated using pymatgen
data_Mo
_symmetry_space_group_name_H-M   'P 1'
_cell_length_a   7.31012717
_cell_length_b   7.31012717
_cell_length_c   3.65506363
_cell_angle_alpha   90.00000000
_cell_angle_beta   90.00000000
_cell_angle_gamma   90.00000000
_symmetry_Int_Tables_number   1
_chemical_formula_structural   Mo
_chemical_formula_sum   Mo16
_cell_volume   195.31914108
_cell_formula_units_Z   16
loop_
 _symmetry_equiv_pos_site_id
 _symmetry_equiv_pos_as_xyz
  1  'x, y, z'
loop_
 _atom_site_type_symbol
 _atom_site_label
 _atom_site_symmetry_multiplicity
 _atom_site_fract_x
 _atom_site_fract_y
 _atom_site_fract_z
 _atom_site_occupancy
  Mo  Mo0  1  7.29623000  -0.21844300  3.69172000  1
  Mo  Mo1  1  1.78233000  1.83385000  3.69118000  1
  Mo  Mo2  1  1.81611000  -0.04518900  1.85934000  1
  Mo  Mo3  1  7.23587000  1.91590000  1.81851000  1
  Mo  Mo4  1  3.66217000  7.54426000  -0.08105090  1
  Mo  Mo5  1  5.59490000  1.65843000  3.52133000  1
  Mo  Mo6  1  5.47176000  7.36892000  1.68298000  1
  Mo  Mo7  1  3.67010000  1.66603000  1.83857000  1
  Mo  Mo8  1  -0.02087660  3.78316000  3.49392000  1
  Mo  Mo9  1  2.06888000  5.61524000  3.69847000  1
  Mo  Mo10  1  1.82390000  3.75704000  1.90762000  1
  Mo  Mo11  1  -0.04231720  5.43055000  1.91465000  1
  Mo  Mo12  1  3.44702000  3.47951000  -0.04126630  1
  Mo  Mo13  1  5.33783000  5.49426000  0.00626004  1
  Mo  Mo14  1  5.40176000  3.58520000  1.89791000  1
  Mo  Mo15  1  3.67833000  5.35528000  1.86693000  1
