# generated using pymatgen
data_Mo
_symmetry_space_group_name_H-M   'P 1'
_cell_length_a   7.31012717
_cell_length_b   7.31012717
_cell_length_c   3.65506363
_cell_angle_alpha   90.00000000
_cell_angle_beta   90.00000000
_cell_angle_gamma   90.00000000
_symmetry_Int_Tables_number   1
_chemical_formula_structural   Mo
_chemical_formula_sum   Mo16
_cell_volume   195.31914108
_cell_formula_units_Z   16
loop_
 _symmetry_equiv_pos_site_id
 _symmetry_equiv_pos_as_xyz
  1  'x, y, z'
loop_
 _atom_site_type_symbol
 _atom_site_label
 _atom_site_symmetry_multiplicity
 _atom_site_fract_x
 _atom_site_fract_y
 _atom_site_fract_z
 _atom_site_occupancy
  Mo  Mo0  1  7.43009000  -0.00919892  3.60641000  1
  Mo  Mo1  1  1.71011000  2.05762000  3.62447000  1
  Mo  Mo2  1  1.92559000  0.04551620  1.82181000  1
  Mo  Mo3  1  7.41680000  1.84691000  1.66842000  1
  Mo  Mo4  1  3.57125000  7.13426000  -0.03435420  1
  Mo  Mo5  1  5.50733000  1.88306000  3.74416000  1
  Mo  Mo6  1  5.49593000  7.29328000  1.77791000  1
  Mo  Mo7  1  3.64442000  1.84571000  1.95199000  1
  Mo  Mo8  1  -0.25993300  3.85188000  3.59585000  1
  Mo  Mo9  1  1.86487000  5.23684000  3.67400000  1
  Mo  Mo10  1  1.76445000  3.73839000  1.78338000  1
  Mo  Mo11  1  0.00635498  5.46564000  1.79657000  1
  Mo  Mo12  1  3.70492000  3.48675000  0.03985770  1
  Mo  Mo13  1  5.35783000  5.40277000  0.03594330  1
  Mo  Mo14  1  5.46569000  3.39854000  1.92412000  1
  Mo  Mo15  1  3.61832000  5.54604000  1.75652000  1
