# generated using pymatgen
data_Mo
_symmetry_space_group_name_H-M   'P 1'
_cell_length_a   7.31012717
_cell_length_b   7.31012717
_cell_length_c   3.65506363
_cell_angle_alpha   90.00000000
_cell_angle_beta   90.00000000
_cell_angle_gamma   90.00000000
_symmetry_Int_Tables_number   1
_chemical_formula_structural   Mo
_chemical_formula_sum   Mo16
_cell_volume   195.31914108
_cell_formula_units_Z   16
loop_
 _symmetry_equiv_pos_site_id
 _symmetry_equiv_pos_as_xyz
  1  'x, y, z'
loop_
 _atom_site_type_symbol
 _atom_site_label
 _atom_site_symmetry_multiplicity
 _atom_site_fract_x
 _atom_site_fract_y
 _atom_site_fract_z
 _atom_site_occupancy
  Mo  Mo0  1  7.26869000  0.03000140  3.57547000  1
  Mo  Mo1  1  1.76398000  1.98978000  3.66995000  1
  Mo  Mo2  1  1.96330000  0.00891587  1.82545000  1
  Mo  Mo3  1  7.51049000  1.81978000  1.83685000  1
  Mo  Mo4  1  3.53924000  7.28702000  0.11773500  1
  Mo  Mo5  1  5.57422000  1.83611000  3.51094000  1
  Mo  Mo6  1  5.38681000  7.25098000  1.81041000  1
  Mo  Mo7  1  3.69725000  1.83681000  1.99486000  1
  Mo  Mo8  1  -0.26472700  3.80192000  3.68986000  1
  Mo  Mo9  1  1.76770000  5.22342000  3.52021000  1
  Mo  Mo10  1  1.87576000  3.68513000  1.84579000  1
  Mo  Mo11  1  0.09787260  5.48888000  1.71538000  1
  Mo  Mo12  1  3.72162000  3.45835000  0.07900310  1
  Mo  Mo13  1  5.37718000  5.53643000  -0.06739710  1
  Mo  Mo14  1  5.41810000  3.55656000  1.77092000  1
  Mo  Mo15  1  3.52651000  5.41390000  1.87164000  1
