# generated using pymatgen
data_Mo
_symmetry_space_group_name_H-M   'P 1'
_cell_length_a   7.31012717
_cell_length_b   7.31012717
_cell_length_c   3.65506363
_cell_angle_alpha   90.00000000
_cell_angle_beta   90.00000000
_cell_angle_gamma   90.00000000
_symmetry_Int_Tables_number   1
_chemical_formula_structural   Mo
_chemical_formula_sum   Mo16
_cell_volume   195.31914108
_cell_formula_units_Z   16
loop_
 _symmetry_equiv_pos_site_id
 _symmetry_equiv_pos_as_xyz
  1  'x, y, z'
loop_
 _atom_site_type_symbol
 _atom_site_label
 _atom_site_symmetry_multiplicity
 _atom_site_fract_x
 _atom_site_fract_y
 _atom_site_fract_z
 _atom_site_occupancy
  Mo  Mo0  1  7.32771000  0.08697110  3.63379000  1
  Mo  Mo1  1  1.80828000  1.88182000  3.63979000  1
  Mo  Mo2  1  1.78776000  -0.11027500  1.85010000  1
  Mo  Mo3  1  7.39512000  1.67044000  1.75600000  1
  Mo  Mo4  1  3.53834000  7.17020000  0.03167710  1
  Mo  Mo5  1  5.37212000  1.81491000  3.51870000  1
  Mo  Mo6  1  5.52105000  7.54859000  1.82323000  1
  Mo  Mo7  1  3.48590000  1.58494000  1.87731000  1
  Mo  Mo8  1  -0.04674060  3.71144000  3.76711000  1
  Mo  Mo9  1  1.94187000  5.46716000  3.55803000  1
  Mo  Mo10  1  1.76932000  3.66926000  1.77059000  1
  Mo  Mo11  1  -0.04995000  5.46580000  1.65821000  1
  Mo  Mo12  1  3.62208000  3.64930000  0.05397660  1
  Mo  Mo13  1  5.51811000  5.67344000  -0.05471580  1
  Mo  Mo14  1  5.49404000  3.51847000  1.86660000  1
  Mo  Mo15  1  3.73899000  5.42154000  2.01667000  1
