# generated using pymatgen
data_Mo
_symmetry_space_group_name_H-M   'P 1'
_cell_length_a   7.31012717
_cell_length_b   7.31012717
_cell_length_c   3.65506363
_cell_angle_alpha   90.00000000
_cell_angle_beta   90.00000000
_cell_angle_gamma   90.00000000
_symmetry_Int_Tables_number   1
_chemical_formula_structural   Mo
_chemical_formula_sum   Mo16
_cell_volume   195.31914108
_cell_formula_units_Z   16
loop_
 _symmetry_equiv_pos_site_id
 _symmetry_equiv_pos_as_xyz
  1  'x, y, z'
loop_
 _atom_site_type_symbol
 _atom_site_label
 _atom_site_symmetry_multiplicity
 _atom_site_fract_x
 _atom_site_fract_y
 _atom_site_fract_z
 _atom_site_occupancy
  Mo  Mo0  1  7.20146000  -0.08617560  3.73845000  1
  Mo  Mo1  1  1.81875000  1.82652000  3.67238000  1
  Mo  Mo2  1  1.72943000  -0.12474200  1.85842000  1
  Mo  Mo3  1  7.24029000  1.57665000  1.86071000  1
  Mo  Mo4  1  3.65935000  7.27909000  0.01276460  1
  Mo  Mo5  1  5.42958000  1.80130000  3.74273000  1
  Mo  Mo6  1  5.43608000  7.38456000  1.84500000  1
  Mo  Mo7  1  3.60074000  1.83909000  1.77866000  1
  Mo  Mo8  1  0.15893000  3.71513000  3.49727000  1
  Mo  Mo9  1  1.96959000  5.64289000  3.58314000  1
  Mo  Mo10  1  1.76960000  3.59081000  1.62879000  1
  Mo  Mo11  1  -0.03494240  5.58514000  1.88449000  1
  Mo  Mo12  1  3.63834000  3.65988000  -0.03471300  1
  Mo  Mo13  1  5.44787000  5.45174000  0.01662070  1
  Mo  Mo14  1  5.50511000  3.58071000  1.82721000  1
  Mo  Mo15  1  3.65382000  5.50142000  1.85514000  1
