# generated using pymatgen
data_Mo
_symmetry_space_group_name_H-M   'P 1'
_cell_length_a   7.31012717
_cell_length_b   7.31012717
_cell_length_c   3.65506363
_cell_angle_alpha   90.00000000
_cell_angle_beta   90.00000000
_cell_angle_gamma   90.00000000
_symmetry_Int_Tables_number   1
_chemical_formula_structural   Mo
_chemical_formula_sum   Mo16
_cell_volume   195.31914108
_cell_formula_units_Z   16
loop_
 _symmetry_equiv_pos_site_id
 _symmetry_equiv_pos_as_xyz
  1  'x, y, z'
loop_
 _atom_site_type_symbol
 _atom_site_label
 _atom_site_symmetry_multiplicity
 _atom_site_fract_x
 _atom_site_fract_y
 _atom_site_fract_z
 _atom_site_occupancy
  Mo  Mo0  1  7.33382000  -0.04833060  3.82096000  1
  Mo  Mo1  1  1.85673000  1.90168000  3.69200000  1
  Mo  Mo2  1  1.88207000  0.04305970  1.99286000  1
  Mo  Mo3  1  7.23556000  1.61575000  1.99117000  1
  Mo  Mo4  1  3.61180000  7.26627000  -0.13117200  1
  Mo  Mo5  1  5.55950000  1.84240000  3.51815000  1
  Mo  Mo6  1  5.55994000  7.22385000  1.95473000  1
  Mo  Mo7  1  3.63715000  1.84535000  1.77327000  1
  Mo  Mo8  1  -0.10028600  3.59665000  3.55812000  1
  Mo  Mo9  1  1.81132000  5.43139000  3.62575000  1
  Mo  Mo10  1  1.79313000  3.69636000  1.74433000  1
  Mo  Mo11  1  0.06504250  5.53600000  1.81882000  1
  Mo  Mo12  1  3.74696000  3.65871000  -0.03292890  1
  Mo  Mo13  1  5.47368000  5.31646000  -0.10659800  1
  Mo  Mo14  1  5.21927000  3.81086000  1.73792000  1
  Mo  Mo15  1  3.53830000  5.48755000  1.80968000  1
