# generated using pymatgen
data_Mo
_symmetry_space_group_name_H-M   'P 1'
_cell_length_a   7.31012717
_cell_length_b   7.31012717
_cell_length_c   3.65506363
_cell_angle_alpha   90.00000000
_cell_angle_beta   90.00000000
_cell_angle_gamma   90.00000000
_symmetry_Int_Tables_number   1
_chemical_formula_structural   Mo
_chemical_formula_sum   Mo16
_cell_volume   195.31914108
_cell_formula_units_Z   16
loop_
 _symmetry_equiv_pos_site_id
 _symmetry_equiv_pos_as_xyz
  1  'x, y, z'
loop_
 _atom_site_type_symbol
 _atom_site_label
 _atom_site_symmetry_multiplicity
 _atom_site_fract_x
 _atom_site_fract_y
 _atom_site_fract_z
 _atom_site_occupancy
  Mo  Mo0  1  7.28815000  -0.15647000  3.71602000  1
  Mo  Mo1  1  1.69324000  1.80532000  3.56342000  1
  Mo  Mo2  1  1.66710000  0.02637960  1.80372000  1
  Mo  Mo3  1  7.25855000  1.81395000  1.78082000  1
  Mo  Mo4  1  3.52072000  7.32243000  0.11448100  1
  Mo  Mo5  1  5.43564000  1.69573000  3.63881000  1
  Mo  Mo6  1  5.62217000  7.44003000  1.72869000  1
  Mo  Mo7  1  3.57183000  1.72233000  1.93459000  1
  Mo  Mo8  1  -0.07096280  3.82509000  3.65928000  1
  Mo  Mo9  1  2.03570000  5.49728000  3.54925000  1
  Mo  Mo10  1  1.89727000  3.59793000  1.84165000  1
  Mo  Mo11  1  0.14503400  5.64127000  1.74200000  1
  Mo  Mo12  1  3.75284000  3.59653000  0.17914900  1
  Mo  Mo13  1  5.38162000  5.44401000  0.04595490  1
  Mo  Mo14  1  5.44982000  3.53023000  1.81659000  1
  Mo  Mo15  1  3.57527000  5.42195000  1.65265000  1
