# generated using pymatgen
data_Mo
_symmetry_space_group_name_H-M   'P 1'
_cell_length_a   7.31012717
_cell_length_b   7.31012717
_cell_length_c   3.65506363
_cell_angle_alpha   90.00000000
_cell_angle_beta   90.00000000
_cell_angle_gamma   90.00000000
_symmetry_Int_Tables_number   1
_chemical_formula_structural   Mo
_chemical_formula_sum   Mo16
_cell_volume   195.31914108
_cell_formula_units_Z   16
loop_
 _symmetry_equiv_pos_site_id
 _symmetry_equiv_pos_as_xyz
  1  'x, y, z'
loop_
 _atom_site_type_symbol
 _atom_site_label
 _atom_site_symmetry_multiplicity
 _atom_site_fract_x
 _atom_site_fract_y
 _atom_site_fract_z
 _atom_site_occupancy
  Mo  Mo0  1  7.26794000  0.11105100  3.66550000  1
  Mo  Mo1  1  1.90081000  1.85163000  3.76302000  1
  Mo  Mo2  1  1.67533000  -0.05072380  1.80174000  1
  Mo  Mo3  1  7.43066000  1.81897000  1.81428000  1
  Mo  Mo4  1  3.48616000  7.16953000  0.00295851  1
  Mo  Mo5  1  5.29736000  1.68210000  3.57113000  1
  Mo  Mo6  1  5.55148000  7.37749000  1.77260000  1
  Mo  Mo7  1  3.49604000  1.54285000  1.92031000  1
  Mo  Mo8  1  -0.11206300  3.59818000  3.60372000  1
  Mo  Mo9  1  1.81069000  5.37604000  3.51722000  1
  Mo  Mo10  1  1.76221000  3.70482000  1.79341000  1
  Mo  Mo11  1  0.11975900  5.51204000  1.74952000  1
  Mo  Mo12  1  3.79140000  3.87126000  0.20337700  1
  Mo  Mo13  1  5.65041000  5.66324000  -0.10494000  1
  Mo  Mo14  1  5.34236000  3.51709000  1.83049000  1
  Mo  Mo15  1  3.75344000  5.47844000  1.86274000  1
