# generated using pymatgen
data_Mo
_symmetry_space_group_name_H-M   'P 1'
_cell_length_a   7.29789726
_cell_length_b   7.29789726
_cell_length_c   3.64894867
_cell_angle_alpha   90.00000000
_cell_angle_beta   90.00000000
_cell_angle_gamma   90.00000000
_symmetry_Int_Tables_number   1
_chemical_formula_structural   Mo
_chemical_formula_sum   Mo16
_cell_volume   194.34046797
_cell_formula_units_Z   16
loop_
 _symmetry_equiv_pos_site_id
 _symmetry_equiv_pos_as_xyz
  1  'x, y, z'
loop_
 _atom_site_type_symbol
 _atom_site_label
 _atom_site_symmetry_multiplicity
 _atom_site_fract_x
 _atom_site_fract_y
 _atom_site_fract_z
 _atom_site_occupancy
  Mo  Mo0  1  7.31114000  0.10649500  0.02896960  1
  Mo  Mo1  1  1.95628000  1.84000000  0.07434120  1
  Mo  Mo2  1  1.84014000  7.22638000  1.87865000  1
  Mo  Mo3  1  7.33821000  1.68242000  1.81672000  1
  Mo  Mo4  1  3.71515000  7.18358000  3.60571000  1
  Mo  Mo5  1  5.41994000  1.89453000  0.06148490  1
  Mo  Mo6  1  5.42715000  7.26224000  1.95145000  1
  Mo  Mo7  1  3.65535000  1.85189000  1.78631000  1
  Mo  Mo8  1  7.34104000  3.60404000  3.52587000  1
  Mo  Mo9  1  1.67808000  5.45603000  -0.05932350  1
  Mo  Mo10  1  1.76729000  3.73544000  1.76959000  1
  Mo  Mo11  1  7.35322000  5.37919000  1.81166000  1
  Mo  Mo12  1  3.54306000  3.78195000  -0.01699810  1
  Mo  Mo13  1  5.43549000  5.47047000  3.61582000  1
  Mo  Mo14  1  5.51101000  3.57888000  1.83459000  1
  Mo  Mo15  1  3.52724000  5.46836000  1.77821000  1
