# generated using pymatgen
data_Mo
_symmetry_space_group_name_H-M   'P 1'
_cell_length_a   7.31012717
_cell_length_b   7.31012717
_cell_length_c   3.65506363
_cell_angle_alpha   90.00000000
_cell_angle_beta   90.00000000
_cell_angle_gamma   90.00000000
_symmetry_Int_Tables_number   1
_chemical_formula_structural   Mo
_chemical_formula_sum   Mo16
_cell_volume   195.31914108
_cell_formula_units_Z   16
loop_
 _symmetry_equiv_pos_site_id
 _symmetry_equiv_pos_as_xyz
  1  'x, y, z'
loop_
 _atom_site_type_symbol
 _atom_site_label
 _atom_site_symmetry_multiplicity
 _atom_site_fract_x
 _atom_site_fract_y
 _atom_site_fract_z
 _atom_site_occupancy
  Mo  Mo0  1  7.43392000  -0.07001780  3.76612000  1
  Mo  Mo1  1  1.74609000  1.83519000  3.79318000  1
  Mo  Mo2  1  1.87968000  -0.04788690  1.90496000  1
  Mo  Mo3  1  7.27771000  1.68110000  1.93250000  1
  Mo  Mo4  1  3.56475000  7.35770000  -0.05666410  1
  Mo  Mo5  1  5.51572000  1.97449000  3.58034000  1
  Mo  Mo6  1  5.30107000  7.21567000  1.59725000  1
  Mo  Mo7  1  3.75928000  1.81304000  1.63858000  1
  Mo  Mo8  1  -0.04507970  3.81119000  3.76854000  1
  Mo  Mo9  1  1.75184000  5.43460000  3.79590000  1
  Mo  Mo10  1  2.01647000  3.56128000  1.92303000  1
  Mo  Mo11  1  -0.07154670  5.56805000  1.86412000  1
  Mo  Mo12  1  3.65015000  3.65389000  -0.15021100  1
  Mo  Mo13  1  5.34292000  5.51219000  -0.01734180  1
  Mo  Mo14  1  5.39299000  3.56524000  1.73531000  1
  Mo  Mo15  1  3.70803000  5.35828000  1.69144000  1
