# generated using pymatgen
data_Mo
_symmetry_space_group_name_H-M   'P 1'
_cell_length_a   7.31012717
_cell_length_b   7.31012717
_cell_length_c   3.65506363
_cell_angle_alpha   90.00000000
_cell_angle_beta   90.00000000
_cell_angle_gamma   90.00000000
_symmetry_Int_Tables_number   1
_chemical_formula_structural   Mo
_chemical_formula_sum   Mo16
_cell_volume   195.31914108
_cell_formula_units_Z   16
loop_
 _symmetry_equiv_pos_site_id
 _symmetry_equiv_pos_as_xyz
  1  'x, y, z'
loop_
 _atom_site_type_symbol
 _atom_site_label
 _atom_site_symmetry_multiplicity
 _atom_site_fract_x
 _atom_site_fract_y
 _atom_site_fract_z
 _atom_site_occupancy
  Mo  Mo0  1  7.25769000  0.00525200  3.71099000  1
  Mo  Mo1  1  1.86480000  1.88638000  3.55881000  1
  Mo  Mo2  1  1.62332000  0.01606990  1.79420000  1
  Mo  Mo3  1  7.26773000  1.77174000  1.78235000  1
  Mo  Mo4  1  3.65003000  7.30416000  -0.04570350  1
  Mo  Mo5  1  5.37012000  1.85147000  3.59220000  1
  Mo  Mo6  1  5.41718000  7.39614000  1.73107000  1
  Mo  Mo7  1  3.52344000  1.85088000  1.87781000  1
  Mo  Mo8  1  0.04453580  3.56935000  3.74611000  1
  Mo  Mo9  1  2.03406000  5.48356000  3.73780000  1
  Mo  Mo10  1  1.72939000  3.73461000  1.82595000  1
  Mo  Mo11  1  0.04923910  5.47491000  1.73436000  1
  Mo  Mo12  1  3.64721000  3.56177000  -0.00062937  1
  Mo  Mo13  1  5.54904000  5.31121000  0.05721190  1
  Mo  Mo14  1  5.55252000  3.45040000  1.79843000  1
  Mo  Mo15  1  3.64369000  5.55611000  1.86613000  1
