# generated using pymatgen
data_Mo
_symmetry_space_group_name_H-M   'P 1'
_cell_length_a   7.31012717
_cell_length_b   7.31012717
_cell_length_c   3.65506363
_cell_angle_alpha   90.00000000
_cell_angle_beta   90.00000000
_cell_angle_gamma   90.00000000
_symmetry_Int_Tables_number   1
_chemical_formula_structural   Mo
_chemical_formula_sum   Mo16
_cell_volume   195.31914108
_cell_formula_units_Z   16
loop_
 _symmetry_equiv_pos_site_id
 _symmetry_equiv_pos_as_xyz
  1  'x, y, z'
loop_
 _atom_site_type_symbol
 _atom_site_label
 _atom_site_symmetry_multiplicity
 _atom_site_fract_x
 _atom_site_fract_y
 _atom_site_fract_z
 _atom_site_occupancy
  Mo  Mo0  1  7.25861000  -0.20781400  3.57726000  1
  Mo  Mo1  1  1.82707000  1.69564000  3.50247000  1
  Mo  Mo2  1  1.89585000  -0.00369114  1.84330000  1
  Mo  Mo3  1  7.28466000  1.81136000  1.84232000  1
  Mo  Mo4  1  3.51582000  7.30572000  -0.02988310  1
  Mo  Mo5  1  5.40481000  1.96671000  3.67484000  1
  Mo  Mo6  1  5.47176000  7.33210000  1.93199000  1
  Mo  Mo7  1  3.65857000  1.91430000  1.82922000  1
  Mo  Mo8  1  0.11120400  3.67532000  3.54502000  1
  Mo  Mo9  1  1.89005000  5.42209000  3.55821000  1
  Mo  Mo10  1  1.82503000  3.77731000  1.83175000  1
  Mo  Mo11  1  -0.03097130  5.52148000  1.84429000  1
  Mo  Mo12  1  3.62755000  3.55511000  0.11948100  1
  Mo  Mo13  1  5.45158000  5.26581000  -0.01060500  1
  Mo  Mo14  1  5.41127000  3.66973000  1.82796000  1
  Mo  Mo15  1  3.62113000  5.52282000  1.87943000  1
