# generated using pymatgen
data_Mo
_symmetry_space_group_name_H-M   'P 1'
_cell_length_a   7.31012717
_cell_length_b   7.31012717
_cell_length_c   3.65506363
_cell_angle_alpha   90.00000000
_cell_angle_beta   90.00000000
_cell_angle_gamma   90.00000000
_symmetry_Int_Tables_number   1
_chemical_formula_structural   Mo
_chemical_formula_sum   Mo16
_cell_volume   195.31914108
_cell_formula_units_Z   16
loop_
 _symmetry_equiv_pos_site_id
 _symmetry_equiv_pos_as_xyz
  1  'x, y, z'
loop_
 _atom_site_type_symbol
 _atom_site_label
 _atom_site_symmetry_multiplicity
 _atom_site_fract_x
 _atom_site_fract_y
 _atom_site_fract_z
 _atom_site_occupancy
  Mo  Mo0  1  7.28827000  0.02480260  3.47634000  1
  Mo  Mo1  1  1.82016000  1.85438000  3.64650000  1
  Mo  Mo2  1  1.73365000  0.16605100  1.76010000  1
  Mo  Mo3  1  7.31068000  1.83741000  1.70199000  1
  Mo  Mo4  1  3.44230000  7.18780000  -0.00552692  1
  Mo  Mo5  1  5.40388000  1.77562000  3.67464000  1
  Mo  Mo6  1  5.28920000  7.16172000  1.74495000  1
  Mo  Mo7  1  3.74286000  2.03853000  1.86774000  1
  Mo  Mo8  1  -0.00494676  3.71875000  3.72145000  1
  Mo  Mo9  1  1.80819000  5.45879000  3.81441000  1
  Mo  Mo10  1  1.77289000  3.62842000  1.86766000  1
  Mo  Mo11  1  -0.00191701  5.28388000  1.87988000  1
  Mo  Mo12  1  3.62925000  3.71201000  0.12542500  1
  Mo  Mo13  1  5.60255000  5.39835000  -0.11650600  1
  Mo  Mo14  1  5.53431000  3.60363000  1.82782000  1
  Mo  Mo15  1  3.85267000  5.37387000  1.78018000  1
