# generated using pymatgen
data_Mo
_symmetry_space_group_name_H-M   'P 1'
_cell_length_a   7.31012717
_cell_length_b   7.31012717
_cell_length_c   3.65506363
_cell_angle_alpha   90.00000000
_cell_angle_beta   90.00000000
_cell_angle_gamma   90.00000000
_symmetry_Int_Tables_number   1
_chemical_formula_structural   Mo
_chemical_formula_sum   Mo16
_cell_volume   195.31914108
_cell_formula_units_Z   16
loop_
 _symmetry_equiv_pos_site_id
 _symmetry_equiv_pos_as_xyz
  1  'x, y, z'
loop_
 _atom_site_type_symbol
 _atom_site_label
 _atom_site_symmetry_multiplicity
 _atom_site_fract_x
 _atom_site_fract_y
 _atom_site_fract_z
 _atom_site_occupancy
  Mo  Mo0  1  7.40140000  -0.03151550  3.57688000  1
  Mo  Mo1  1  1.75887000  1.77546000  3.72762000  1
  Mo  Mo2  1  1.87285000  0.15747000  1.93773000  1
  Mo  Mo3  1  7.27263000  1.97052000  1.72873000  1
  Mo  Mo4  1  3.72673000  7.11102000  -0.11655100  1
  Mo  Mo5  1  5.64050000  1.64076000  3.68859000  1
  Mo  Mo6  1  5.26781000  7.22260000  1.78433000  1
  Mo  Mo7  1  3.70003000  1.71188000  1.85168000  1
  Mo  Mo8  1  0.07732050  3.86026000  3.49530000  1
  Mo  Mo9  1  1.73610000  5.56701000  3.71344000  1
  Mo  Mo10  1  1.85710000  3.46826000  1.91373000  1
  Mo  Mo11  1  -0.03330330  5.55684000  1.83005000  1
  Mo  Mo12  1  3.51629000  3.65826000  -0.10066800  1
  Mo  Mo13  1  5.38497000  5.41596000  0.01814120  1
  Mo  Mo14  1  5.50271000  3.66862000  1.77515000  1
  Mo  Mo15  1  3.54200000  5.47060000  1.94291000  1
