# generated using pymatgen
data_Mo
_symmetry_space_group_name_H-M   'P 1'
_cell_length_a   7.31012717
_cell_length_b   7.31012717
_cell_length_c   3.65506363
_cell_angle_alpha   90.00000000
_cell_angle_beta   90.00000000
_cell_angle_gamma   90.00000000
_symmetry_Int_Tables_number   1
_chemical_formula_structural   Mo
_chemical_formula_sum   Mo16
_cell_volume   195.31914108
_cell_formula_units_Z   16
loop_
 _symmetry_equiv_pos_site_id
 _symmetry_equiv_pos_as_xyz
  1  'x, y, z'
loop_
 _atom_site_type_symbol
 _atom_site_label
 _atom_site_symmetry_multiplicity
 _atom_site_fract_x
 _atom_site_fract_y
 _atom_site_fract_z
 _atom_site_occupancy
  Mo  Mo0  1  7.31992000  -0.04431660  3.59108000  1
  Mo  Mo1  1  1.91401000  1.89188000  3.66704000  1
  Mo  Mo2  1  1.83847000  -0.07970490  1.80844000  1
  Mo  Mo3  1  7.31868000  1.93872000  1.95500000  1
  Mo  Mo4  1  3.61452000  7.33951000  -0.04368670  1
  Mo  Mo5  1  5.35657000  2.01309000  3.69005000  1
  Mo  Mo6  1  5.65781000  7.41400000  1.81937000  1
  Mo  Mo7  1  3.74633000  1.68211000  1.77991000  1
  Mo  Mo8  1  -0.06964660  3.61853000  3.69649000  1
  Mo  Mo9  1  1.74824000  5.40764000  3.56316000  1
  Mo  Mo10  1  1.79711000  3.53264000  1.74897000  1
  Mo  Mo11  1  0.07351790  5.43389000  1.71523000  1
  Mo  Mo12  1  3.62296000  3.59661000  -0.00751790  1
  Mo  Mo13  1  5.29108000  5.50676000  0.06316840  1
  Mo  Mo14  1  5.44628000  3.55841000  1.92514000  1
  Mo  Mo15  1  3.54814000  5.41423000  1.79521000  1
