# generated using pymatgen
data_Mo
_symmetry_space_group_name_H-M   'P 1'
_cell_length_a   7.31012717
_cell_length_b   7.31012717
_cell_length_c   3.65506363
_cell_angle_alpha   90.00000000
_cell_angle_beta   90.00000000
_cell_angle_gamma   90.00000000
_symmetry_Int_Tables_number   1
_chemical_formula_structural   Mo
_chemical_formula_sum   Mo16
_cell_volume   195.31914108
_cell_formula_units_Z   16
loop_
 _symmetry_equiv_pos_site_id
 _symmetry_equiv_pos_as_xyz
  1  'x, y, z'
loop_
 _atom_site_type_symbol
 _atom_site_label
 _atom_site_symmetry_multiplicity
 _atom_site_fract_x
 _atom_site_fract_y
 _atom_site_fract_z
 _atom_site_occupancy
  Mo  Mo0  1  7.49609000  0.04373110  3.58975000  1
  Mo  Mo1  1  2.04235000  1.90889000  3.82722000  1
  Mo  Mo2  1  1.84746000  -0.09336480  1.70838000  1
  Mo  Mo3  1  7.25601000  1.74982000  1.74355000  1
  Mo  Mo4  1  3.59109000  7.33795000  -0.05091910  1
  Mo  Mo5  1  5.53606000  1.64682000  3.66141000  1
  Mo  Mo6  1  5.45853000  7.21786000  1.78233000  1
  Mo  Mo7  1  3.65723000  1.71104000  1.77378000  1
  Mo  Mo8  1  -0.10525500  3.54135000  3.62135000  1
  Mo  Mo9  1  1.63879000  5.42144000  3.75823000  1
  Mo  Mo10  1  1.84106000  3.63736000  1.88926000  1
  Mo  Mo11  1  -0.13563600  5.46832000  1.85979000  1
  Mo  Mo12  1  3.63247000  3.80913000  0.00624989  1
  Mo  Mo13  1  5.45934000  5.62528000  0.02181070  1
  Mo  Mo14  1  5.38989000  3.64495000  1.80441000  1
  Mo  Mo15  1  3.61851000  5.55342000  1.77044000  1
