# generated using pymatgen
data_Mo
_symmetry_space_group_name_H-M   'P 1'
_cell_length_a   7.29789726
_cell_length_b   7.29789726
_cell_length_c   3.64894867
_cell_angle_alpha   90.00000000
_cell_angle_beta   90.00000000
_cell_angle_gamma   90.00000000
_symmetry_Int_Tables_number   1
_chemical_formula_structural   Mo
_chemical_formula_sum   Mo16
_cell_volume   194.34046797
_cell_formula_units_Z   16
loop_
 _symmetry_equiv_pos_site_id
 _symmetry_equiv_pos_as_xyz
  1  'x, y, z'
loop_
 _atom_site_type_symbol
 _atom_site_label
 _atom_site_symmetry_multiplicity
 _atom_site_fract_x
 _atom_site_fract_y
 _atom_site_fract_z
 _atom_site_occupancy
  Mo  Mo0  1  7.25215000  0.08197900  -0.04573790  1
  Mo  Mo1  1  1.75765000  1.82181000  -0.02997020  1
  Mo  Mo2  1  1.85352000  7.19282000  1.81096000  1
  Mo  Mo3  1  7.41952000  1.73253000  1.81075000  1
  Mo  Mo4  1  3.63012000  7.21953000  3.56747000  1
  Mo  Mo5  1  5.49692000  1.98200000  0.04986010  1
  Mo  Mo6  1  5.57325000  7.26144000  1.83792000  1
  Mo  Mo7  1  3.76618000  1.71640000  1.64911000  1
  Mo  Mo8  1  7.24325000  3.62760000  3.73836000  1
  Mo  Mo9  1  1.89010000  5.57963000  -0.03921670  1
  Mo  Mo10  1  1.67678000  3.70975000  1.87451000  1
  Mo  Mo11  1  7.16549000  5.43900000  1.89465000  1
  Mo  Mo12  1  3.47453000  3.65234000  -0.05030880  1
  Mo  Mo13  1  5.42125000  5.35222000  3.73778000  1
  Mo  Mo14  1  5.46063000  3.48209000  1.79623000  1
  Mo  Mo15  1  3.73845000  5.67077000  1.86069000  1
