# generated using pymatgen
data_Mo
_symmetry_space_group_name_H-M   'P 1'
_cell_length_a   7.31012717
_cell_length_b   7.31012717
_cell_length_c   3.65506363
_cell_angle_alpha   90.00000000
_cell_angle_beta   90.00000000
_cell_angle_gamma   90.00000000
_symmetry_Int_Tables_number   1
_chemical_formula_structural   Mo
_chemical_formula_sum   Mo16
_cell_volume   195.31914108
_cell_formula_units_Z   16
loop_
 _symmetry_equiv_pos_site_id
 _symmetry_equiv_pos_as_xyz
  1  'x, y, z'
loop_
 _atom_site_type_symbol
 _atom_site_label
 _atom_site_symmetry_multiplicity
 _atom_site_fract_x
 _atom_site_fract_y
 _atom_site_fract_z
 _atom_site_occupancy
  Mo  Mo0  1  7.26365000  -0.12254300  3.57351000  1
  Mo  Mo1  1  1.90390000  1.87318000  3.62824000  1
  Mo  Mo2  1  1.88576000  -0.05266910  1.82639000  1
  Mo  Mo3  1  7.45549000  1.81789000  1.82023000  1
  Mo  Mo4  1  3.63222000  7.41431000  0.05213590  1
  Mo  Mo5  1  5.55873000  1.99469000  3.76276000  1
  Mo  Mo6  1  5.48232000  7.25284000  1.76136000  1
  Mo  Mo7  1  3.65331000  1.79099000  1.80889000  1
  Mo  Mo8  1  -0.12177200  3.54171000  3.59315000  1
  Mo  Mo9  1  1.69777000  5.28844000  3.79010000  1
  Mo  Mo10  1  1.71730000  3.63026000  1.92859000  1
  Mo  Mo11  1  -0.04739610  5.47979000  1.75469000  1
  Mo  Mo12  1  3.67230000  3.71148000  -0.03203520  1
  Mo  Mo13  1  5.38446000  5.39228000  -0.14998500  1
  Mo  Mo14  1  5.47806000  3.82369000  1.92861000  1
  Mo  Mo15  1  3.60791000  5.38765000  1.72044000  1
