# generated using pymatgen
data_Mo
_symmetry_space_group_name_H-M   'P 1'
_cell_length_a   7.31012717
_cell_length_b   7.31012717
_cell_length_c   3.65506363
_cell_angle_alpha   90.00000000
_cell_angle_beta   90.00000000
_cell_angle_gamma   90.00000000
_symmetry_Int_Tables_number   1
_chemical_formula_structural   Mo
_chemical_formula_sum   Mo16
_cell_volume   195.31914108
_cell_formula_units_Z   16
loop_
 _symmetry_equiv_pos_site_id
 _symmetry_equiv_pos_as_xyz
  1  'x, y, z'
loop_
 _atom_site_type_symbol
 _atom_site_label
 _atom_site_symmetry_multiplicity
 _atom_site_fract_x
 _atom_site_fract_y
 _atom_site_fract_z
 _atom_site_occupancy
  Mo  Mo0  1  7.35657000  -0.06997030  3.62147000  1
  Mo  Mo1  1  1.75603000  1.94399000  3.60224000  1
  Mo  Mo2  1  1.76395000  -0.02073150  1.79204000  1
  Mo  Mo3  1  7.24015000  2.05726000  1.82290000  1
  Mo  Mo4  1  3.71323000  7.25171000  0.02279900  1
  Mo  Mo5  1  5.48269000  1.78847000  3.84726000  1
  Mo  Mo6  1  5.72530000  7.39765000  1.83222000  1
  Mo  Mo7  1  3.75163000  1.59482000  1.94562000  1
  Mo  Mo8  1  -0.25622000  3.58542000  3.60185000  1
  Mo  Mo9  1  1.93436000  5.32249000  3.50656000  1
  Mo  Mo10  1  2.01129000  3.61678000  1.83953000  1
  Mo  Mo11  1  -0.04447390  5.36461000  1.76615000  1
  Mo  Mo12  1  3.50847000  3.48672000  -0.13115100  1
  Mo  Mo13  1  5.38295000  5.58955000  0.01289600  1
  Mo  Mo14  1  5.24341000  3.74977000  1.83277000  1
  Mo  Mo15  1  3.65466000  5.56546000  1.85190000  1
