# generated using pymatgen
data_Mo
_symmetry_space_group_name_H-M   'P 1'
_cell_length_a   7.31012717
_cell_length_b   7.31012717
_cell_length_c   3.65506363
_cell_angle_alpha   90.00000000
_cell_angle_beta   90.00000000
_cell_angle_gamma   90.00000000
_symmetry_Int_Tables_number   1
_chemical_formula_structural   Mo
_chemical_formula_sum   Mo16
_cell_volume   195.31914108
_cell_formula_units_Z   16
loop_
 _symmetry_equiv_pos_site_id
 _symmetry_equiv_pos_as_xyz
  1  'x, y, z'
loop_
 _atom_site_type_symbol
 _atom_site_label
 _atom_site_symmetry_multiplicity
 _atom_site_fract_x
 _atom_site_fract_y
 _atom_site_fract_z
 _atom_site_occupancy
  Mo  Mo0  1  7.29920000  0.02928540  3.64344000  1
  Mo  Mo1  1  1.78374000  1.68062000  3.66341000  1
  Mo  Mo2  1  1.76972000  0.04228760  1.85962000  1
  Mo  Mo3  1  7.30251000  1.71452000  1.79332000  1
  Mo  Mo4  1  3.66079000  7.34509000  -0.01955500  1
  Mo  Mo5  1  5.49809000  1.80550000  3.53573000  1
  Mo  Mo6  1  5.58117000  7.28757000  1.76355000  1
  Mo  Mo7  1  3.68765000  1.68862000  1.79983000  1
  Mo  Mo8  1  0.02344960  3.77952000  3.72931000  1
  Mo  Mo9  1  1.82809000  5.41663000  3.72425000  1
  Mo  Mo10  1  1.78593000  3.66490000  1.95380000  1
  Mo  Mo11  1  0.04067230  5.65851000  1.72480000  1
  Mo  Mo12  1  3.59808000  3.65238000  0.01165980  1
  Mo  Mo13  1  5.30295000  5.42085000  -0.03344620  1
  Mo  Mo14  1  5.44464000  3.54067000  1.78000000  1
  Mo  Mo15  1  3.61731000  5.49703000  1.83734000  1
