# generated using pymatgen
data_Mo
_symmetry_space_group_name_H-M   'P 1'
_cell_length_a   7.31012717
_cell_length_b   7.31012717
_cell_length_c   3.65506363
_cell_angle_alpha   90.00000000
_cell_angle_beta   90.00000000
_cell_angle_gamma   90.00000000
_symmetry_Int_Tables_number   1
_chemical_formula_structural   Mo
_chemical_formula_sum   Mo16
_cell_volume   195.31914108
_cell_formula_units_Z   16
loop_
 _symmetry_equiv_pos_site_id
 _symmetry_equiv_pos_as_xyz
  1  'x, y, z'
loop_
 _atom_site_type_symbol
 _atom_site_label
 _atom_site_symmetry_multiplicity
 _atom_site_fract_x
 _atom_site_fract_y
 _atom_site_fract_z
 _atom_site_occupancy
  Mo  Mo0  1  7.23777000  -0.02328830  3.55451000  1
  Mo  Mo1  1  1.75140000  1.66367000  3.66879000  1
  Mo  Mo2  1  1.94600000  -0.18350900  1.87296000  1
  Mo  Mo3  1  7.25630000  1.77264000  1.76947000  1
  Mo  Mo4  1  3.70479000  7.46468000  0.01842390  1
  Mo  Mo5  1  5.49288000  1.99376000  3.71267000  1
  Mo  Mo6  1  5.37968000  7.42440000  1.79912000  1
  Mo  Mo7  1  3.70509000  1.84805000  1.84464000  1
  Mo  Mo8  1  0.00456558  3.58247000  3.43774000  1
  Mo  Mo9  1  1.74908000  5.42153000  3.71973000  1
  Mo  Mo10  1  1.87776000  3.68668000  1.89643000  1
  Mo  Mo11  1  0.05509550  5.38437000  1.84578000  1
  Mo  Mo12  1  3.48996000  3.69625000  0.10009700  1
  Mo  Mo13  1  5.46956000  5.50062000  -0.12110700  1
  Mo  Mo14  1  5.49707000  3.66601000  1.82344000  1
  Mo  Mo15  1  3.60702000  5.32567000  1.82436000  1
