# generated using pymatgen
data_Mo
_symmetry_space_group_name_H-M   'P 1'
_cell_length_a   7.31012717
_cell_length_b   7.31012717
_cell_length_c   3.65506363
_cell_angle_alpha   90.00000000
_cell_angle_beta   90.00000000
_cell_angle_gamma   90.00000000
_symmetry_Int_Tables_number   1
_chemical_formula_structural   Mo
_chemical_formula_sum   Mo16
_cell_volume   195.31914108
_cell_formula_units_Z   16
loop_
 _symmetry_equiv_pos_site_id
 _symmetry_equiv_pos_as_xyz
  1  'x, y, z'
loop_
 _atom_site_type_symbol
 _atom_site_label
 _atom_site_symmetry_multiplicity
 _atom_site_fract_x
 _atom_site_fract_y
 _atom_site_fract_z
 _atom_site_occupancy
  Mo  Mo0  1  7.34657000  0.05388230  3.57596000  1
  Mo  Mo1  1  1.95604000  1.76543000  3.83126000  1
  Mo  Mo2  1  1.82674000  -0.03428990  1.93776000  1
  Mo  Mo3  1  7.28500000  1.91524000  1.76607000  1
  Mo  Mo4  1  3.71709000  7.29467000  0.01333620  1
  Mo  Mo5  1  5.43985000  1.79600000  3.72464000  1
  Mo  Mo6  1  5.51696000  7.12696000  1.84597000  1
  Mo  Mo7  1  3.71383000  1.83448000  1.94281000  1
  Mo  Mo8  1  -0.05860440  3.46362000  3.54303000  1
  Mo  Mo9  1  1.84100000  5.43920000  3.62809000  1
  Mo  Mo10  1  1.76478000  3.61922000  1.84424000  1
  Mo  Mo11  1  -0.00625270  5.30888000  1.70672000  1
  Mo  Mo12  1  3.55455000  3.71404000  -0.13477000  1
  Mo  Mo13  1  5.33876000  5.40133000  -0.18793300  1
  Mo  Mo14  1  5.42336000  3.84017000  1.76529000  1
  Mo  Mo15  1  3.56433000  5.68518000  1.96459000  1
