# generated using pymatgen
data_Mo
_symmetry_space_group_name_H-M   'P 1'
_cell_length_a   7.31012717
_cell_length_b   7.31012717
_cell_length_c   3.65506363
_cell_angle_alpha   90.00000000
_cell_angle_beta   90.00000000
_cell_angle_gamma   90.00000000
_symmetry_Int_Tables_number   1
_chemical_formula_structural   Mo
_chemical_formula_sum   Mo16
_cell_volume   195.31914108
_cell_formula_units_Z   16
loop_
 _symmetry_equiv_pos_site_id
 _symmetry_equiv_pos_as_xyz
  1  'x, y, z'
loop_
 _atom_site_type_symbol
 _atom_site_label
 _atom_site_symmetry_multiplicity
 _atom_site_fract_x
 _atom_site_fract_y
 _atom_site_fract_z
 _atom_site_occupancy
  Mo  Mo0  1  7.39955000  0.01202140  3.67341000  1
  Mo  Mo1  1  1.80882000  1.76979000  3.76199000  1
  Mo  Mo2  1  1.88400000  -0.00427856  1.86435000  1
  Mo  Mo3  1  7.28168000  1.94701000  1.88668000  1
  Mo  Mo4  1  3.44681000  7.25068000  -0.11069400  1
  Mo  Mo5  1  5.43795000  1.80883000  3.48696000  1
  Mo  Mo6  1  5.36230000  7.35769000  1.87910000  1
  Mo  Mo7  1  3.58296000  2.06314000  1.73414000  1
  Mo  Mo8  1  -0.04136600  3.65878000  3.74716000  1
  Mo  Mo9  1  1.86535000  5.34465000  3.69944000  1
  Mo  Mo10  1  1.76660000  3.65486000  1.92667000  1
  Mo  Mo11  1  -0.03215800  5.32024000  1.76321000  1
  Mo  Mo12  1  3.65935000  3.70196000  -0.12181700  1
  Mo  Mo13  1  5.47011000  5.50232000  0.05608620  1
  Mo  Mo14  1  5.51899000  3.49466000  1.73280000  1
  Mo  Mo15  1  3.81305000  5.34165000  1.78757000  1
