# generated using pymatgen
data_Mo
_symmetry_space_group_name_H-M   'P 1'
_cell_length_a   7.31012717
_cell_length_b   7.31012717
_cell_length_c   3.65506363
_cell_angle_alpha   90.00000000
_cell_angle_beta   90.00000000
_cell_angle_gamma   90.00000000
_symmetry_Int_Tables_number   1
_chemical_formula_structural   Mo
_chemical_formula_sum   Mo16
_cell_volume   195.31914108
_cell_formula_units_Z   16
loop_
 _symmetry_equiv_pos_site_id
 _symmetry_equiv_pos_as_xyz
  1  'x, y, z'
loop_
 _atom_site_type_symbol
 _atom_site_label
 _atom_site_symmetry_multiplicity
 _atom_site_fract_x
 _atom_site_fract_y
 _atom_site_fract_z
 _atom_site_occupancy
  Mo  Mo0  1  7.28909000  0.06401930  3.70164000  1
  Mo  Mo1  1  1.83475000  1.91009000  3.68354000  1
  Mo  Mo2  1  1.82796000  0.07855510  1.69400000  1
  Mo  Mo3  1  7.33220000  1.88532000  1.88988000  1
  Mo  Mo4  1  3.55042000  7.15802000  -0.13821500  1
  Mo  Mo5  1  5.51923000  1.89560000  3.72943000  1
  Mo  Mo6  1  5.43100000  7.22503000  1.97283000  1
  Mo  Mo7  1  3.74729000  1.72098000  1.72069000  1
  Mo  Mo8  1  -0.13266300  3.54032000  3.58246000  1
  Mo  Mo9  1  1.76730000  5.24915000  3.71194000  1
  Mo  Mo10  1  1.71596000  3.54560000  1.82888000  1
  Mo  Mo11  1  0.08047120  5.50785000  1.81400000  1
  Mo  Mo12  1  3.65847000  3.65724000  -0.00980572  1
  Mo  Mo13  1  5.53778000  5.49885000  -0.00452561  1
  Mo  Mo14  1  5.35361000  3.67371000  1.77259000  1
  Mo  Mo15  1  3.71113000  5.61367000  1.81773000  1
