# generated using pymatgen
data_Mo
_symmetry_space_group_name_H-M   'P 1'
_cell_length_a   7.31012717
_cell_length_b   7.31012717
_cell_length_c   3.65506363
_cell_angle_alpha   90.00000000
_cell_angle_beta   90.00000000
_cell_angle_gamma   90.00000000
_symmetry_Int_Tables_number   1
_chemical_formula_structural   Mo
_chemical_formula_sum   Mo16
_cell_volume   195.31914108
_cell_formula_units_Z   16
loop_
 _symmetry_equiv_pos_site_id
 _symmetry_equiv_pos_as_xyz
  1  'x, y, z'
loop_
 _atom_site_type_symbol
 _atom_site_label
 _atom_site_symmetry_multiplicity
 _atom_site_fract_x
 _atom_site_fract_y
 _atom_site_fract_z
 _atom_site_occupancy
  Mo  Mo0  1  7.20496000  -0.23274800  3.71428000  1
  Mo  Mo1  1  1.58261000  1.62807000  3.58113000  1
  Mo  Mo2  1  2.05288000  0.14158000  1.68665000  1
  Mo  Mo3  1  7.20666000  1.70217000  1.89402000  1
  Mo  Mo4  1  3.62025000  7.41003000  0.10240400  1
  Mo  Mo5  1  5.60930000  1.77136000  3.64364000  1
  Mo  Mo6  1  5.41664000  7.21523000  1.89413000  1
  Mo  Mo7  1  3.63392000  1.84909000  1.82341000  1
  Mo  Mo8  1  0.14418200  3.73335000  3.73237000  1
  Mo  Mo9  1  1.87576000  5.66674000  3.64139000  1
  Mo  Mo10  1  1.67358000  3.48642000  1.74099000  1
  Mo  Mo11  1  0.04756680  5.40748000  1.80993000  1
  Mo  Mo12  1  3.47530000  3.78621000  0.09430160  1
  Mo  Mo13  1  5.43191000  5.53537000  -0.01756420  1
  Mo  Mo14  1  5.49065000  3.66174000  1.71986000  1
  Mo  Mo15  1  3.75782000  5.46192000  1.70613000  1
