# generated using pymatgen
data_Mo
_symmetry_space_group_name_H-M   'P 1'
_cell_length_a   7.29789726
_cell_length_b   7.29789726
_cell_length_c   3.64894867
_cell_angle_alpha   90.00000000
_cell_angle_beta   90.00000000
_cell_angle_gamma   90.00000000
_symmetry_Int_Tables_number   1
_chemical_formula_structural   Mo
_chemical_formula_sum   Mo16
_cell_volume   194.34046797
_cell_formula_units_Z   16
loop_
 _symmetry_equiv_pos_site_id
 _symmetry_equiv_pos_as_xyz
  1  'x, y, z'
loop_
 _atom_site_type_symbol
 _atom_site_label
 _atom_site_symmetry_multiplicity
 _atom_site_fract_x
 _atom_site_fract_y
 _atom_site_fract_z
 _atom_site_occupancy
  Mo  Mo0  1  7.15498000  0.05734160  -0.03670220  1
  Mo  Mo1  1  1.66931000  1.74648000  -0.00598845  1
  Mo  Mo2  1  1.87595000  7.15299000  1.85552000  1
  Mo  Mo3  1  7.37012000  1.87011000  1.85211000  1
  Mo  Mo4  1  3.67518000  7.35715000  3.77526000  1
  Mo  Mo5  1  5.46412000  1.79935000  -0.00429066  1
  Mo  Mo6  1  5.42006000  7.38106000  1.78282000  1
  Mo  Mo7  1  3.63840000  1.75493000  1.78845000  1
  Mo  Mo8  1  7.11919000  3.72867000  3.68526000  1
  Mo  Mo9  1  1.92633000  5.55663000  -0.00010207  1
  Mo  Mo10  1  1.91136000  3.55485000  1.88150000  1
  Mo  Mo11  1  7.35942000  5.46883000  1.80700000  1
  Mo  Mo12  1  3.60021000  3.53089000  -0.00897560  1
  Mo  Mo13  1  5.47274000  5.51382000  3.59694000  1
  Mo  Mo14  1  5.56271000  3.51030000  1.76662000  1
  Mo  Mo15  1  3.59970000  5.53850000  1.72763000  1
