# generated using pymatgen
data_Mo
_symmetry_space_group_name_H-M   'P 1'
_cell_length_a   7.31012717
_cell_length_b   7.31012717
_cell_length_c   3.65506363
_cell_angle_alpha   90.00000000
_cell_angle_beta   90.00000000
_cell_angle_gamma   90.00000000
_symmetry_Int_Tables_number   1
_chemical_formula_structural   Mo
_chemical_formula_sum   Mo16
_cell_volume   195.31914108
_cell_formula_units_Z   16
loop_
 _symmetry_equiv_pos_site_id
 _symmetry_equiv_pos_as_xyz
  1  'x, y, z'
loop_
 _atom_site_type_symbol
 _atom_site_label
 _atom_site_symmetry_multiplicity
 _atom_site_fract_x
 _atom_site_fract_y
 _atom_site_fract_z
 _atom_site_occupancy
  Mo  Mo0  1  7.27687000  -0.03575230  3.65998000  1
  Mo  Mo1  1  1.81532000  1.84952000  3.66727000  1
  Mo  Mo2  1  1.88640000  -0.06600400  1.78311000  1
  Mo  Mo3  1  7.26102000  1.77597000  1.86876000  1
  Mo  Mo4  1  3.74046000  7.24872000  -0.01985560  1
  Mo  Mo5  1  5.54560000  1.76437000  3.50405000  1
  Mo  Mo6  1  5.42606000  7.23204000  1.91370000  1
  Mo  Mo7  1  3.72407000  1.89501000  1.87201000  1
  Mo  Mo8  1  0.17062600  3.77972000  3.77990000  1
  Mo  Mo9  1  1.80406000  5.57653000  3.63291000  1
  Mo  Mo10  1  1.69411000  3.81813000  1.77869000  1
  Mo  Mo11  1  -0.06141490  5.53790000  1.77882000  1
  Mo  Mo12  1  3.47843000  3.63789000  -0.00934657  1
  Mo  Mo13  1  5.48403000  5.18340000  0.00258636  1
  Mo  Mo14  1  5.44409000  3.56931000  1.80108000  1
  Mo  Mo15  1  3.53427000  5.45725000  1.75338000  1
