# generated using pymatgen
data_Mo
_symmetry_space_group_name_H-M   'P 1'
_cell_length_a   7.31012717
_cell_length_b   7.31012717
_cell_length_c   3.65506363
_cell_angle_alpha   90.00000000
_cell_angle_beta   90.00000000
_cell_angle_gamma   90.00000000
_symmetry_Int_Tables_number   1
_chemical_formula_structural   Mo
_chemical_formula_sum   Mo16
_cell_volume   195.31914108
_cell_formula_units_Z   16
loop_
 _symmetry_equiv_pos_site_id
 _symmetry_equiv_pos_as_xyz
  1  'x, y, z'
loop_
 _atom_site_type_symbol
 _atom_site_label
 _atom_site_symmetry_multiplicity
 _atom_site_fract_x
 _atom_site_fract_y
 _atom_site_fract_z
 _atom_site_occupancy
  Mo  Mo0  1  7.27348000  0.01922920  3.56853000  1
  Mo  Mo1  1  1.77510000  1.69277000  3.74236000  1
  Mo  Mo2  1  1.72597000  0.01845350  1.73500000  1
  Mo  Mo3  1  7.21528000  1.68066000  1.89186000  1
  Mo  Mo4  1  3.74408000  7.17689000  0.03076700  1
  Mo  Mo5  1  5.57948000  1.86729000  3.78659000  1
  Mo  Mo6  1  5.47487000  7.26065000  1.93438000  1
  Mo  Mo7  1  3.57564000  1.65871000  1.71284000  1
  Mo  Mo8  1  0.08795280  3.72224000  3.56889000  1
  Mo  Mo9  1  1.79552000  5.62641000  3.49238000  1
  Mo  Mo10  1  1.82337000  3.73722000  1.87071000  1
  Mo  Mo11  1  -0.10199600  5.61949000  1.74380000  1
  Mo  Mo12  1  3.47965000  3.64530000  0.00382371  1
  Mo  Mo13  1  5.52748000  5.44579000  -0.02314820  1
  Mo  Mo14  1  5.51604000  3.56268000  1.86672000  1
  Mo  Mo15  1  3.73207000  5.49020000  1.84157000  1
