# generated using pymatgen
data_Mo
_symmetry_space_group_name_H-M   'P 1'
_cell_length_a   7.31012717
_cell_length_b   7.31012717
_cell_length_c   3.65506363
_cell_angle_alpha   90.00000000
_cell_angle_beta   90.00000000
_cell_angle_gamma   90.00000000
_symmetry_Int_Tables_number   1
_chemical_formula_structural   Mo
_chemical_formula_sum   Mo16
_cell_volume   195.31914108
_cell_formula_units_Z   16
loop_
 _symmetry_equiv_pos_site_id
 _symmetry_equiv_pos_as_xyz
  1  'x, y, z'
loop_
 _atom_site_type_symbol
 _atom_site_label
 _atom_site_symmetry_multiplicity
 _atom_site_fract_x
 _atom_site_fract_y
 _atom_site_fract_z
 _atom_site_occupancy
  Mo  Mo0  1  7.35348000  -0.02414280  3.74403000  1
  Mo  Mo1  1  1.83198000  1.75456000  3.64008000  1
  Mo  Mo2  1  1.88482000  0.00560537  1.85749000  1
  Mo  Mo3  1  7.29597000  1.75369000  1.77839000  1
  Mo  Mo4  1  3.54439000  7.39110000  -0.08603940  1
  Mo  Mo5  1  5.47905000  1.92051000  3.64744000  1
  Mo  Mo6  1  5.33707000  7.29662000  1.87308000  1
  Mo  Mo7  1  3.78456000  1.96406000  1.82351000  1
  Mo  Mo8  1  -0.06213290  3.71726000  3.65315000  1
  Mo  Mo9  1  1.77802000  5.40975000  3.70873000  1
  Mo  Mo10  1  1.85806000  3.65845000  1.72742000  1
  Mo  Mo11  1  0.02708860  5.32243000  1.85016000  1
  Mo  Mo12  1  3.50562000  3.64701000  0.02707180  1
  Mo  Mo13  1  5.41415000  5.45053000  -0.07808150  1
  Mo  Mo14  1  5.50196000  3.52837000  1.79898000  1
  Mo  Mo15  1  3.68990000  5.42822000  1.80166000  1
