# generated using pymatgen
data_Mo
_symmetry_space_group_name_H-M   'P 1'
_cell_length_a   7.31012717
_cell_length_b   7.31012717
_cell_length_c   3.65506363
_cell_angle_alpha   90.00000000
_cell_angle_beta   90.00000000
_cell_angle_gamma   90.00000000
_symmetry_Int_Tables_number   1
_chemical_formula_structural   Mo
_chemical_formula_sum   Mo16
_cell_volume   195.31914108
_cell_formula_units_Z   16
loop_
 _symmetry_equiv_pos_site_id
 _symmetry_equiv_pos_as_xyz
  1  'x, y, z'
loop_
 _atom_site_type_symbol
 _atom_site_label
 _atom_site_symmetry_multiplicity
 _atom_site_fract_x
 _atom_site_fract_y
 _atom_site_fract_z
 _atom_site_occupancy
  Mo  Mo0  1  7.24932000  0.08386810  3.77469000  1
  Mo  Mo1  1  1.71184000  1.88474000  3.55391000  1
  Mo  Mo2  1  1.76561000  0.03068780  1.73667000  1
  Mo  Mo3  1  7.28948000  1.79398000  1.93910000  1
  Mo  Mo4  1  3.59330000  7.31750000  -0.06318770  1
  Mo  Mo5  1  5.45502000  1.66748000  3.69669000  1
  Mo  Mo6  1  5.47412000  7.31220000  1.71156000  1
  Mo  Mo7  1  3.56041000  1.79954000  1.85683000  1
  Mo  Mo8  1  -0.05122380  3.64766000  3.68236000  1
  Mo  Mo9  1  1.93048000  5.40646000  3.61511000  1
  Mo  Mo10  1  1.86672000  3.62904000  1.98297000  1
  Mo  Mo11  1  -0.01459380  5.26318000  1.83011000  1
  Mo  Mo12  1  3.72179000  3.67817000  0.00911022  1
  Mo  Mo13  1  5.50092000  5.48249000  -0.14935900  1
  Mo  Mo14  1  5.57275000  3.74406000  1.80187000  1
  Mo  Mo15  1  3.59807000  5.48296000  1.78862000  1
