# generated using pymatgen
data_Mo
_symmetry_space_group_name_H-M   'P 1'
_cell_length_a   7.31012717
_cell_length_b   7.31012717
_cell_length_c   3.65506363
_cell_angle_alpha   90.00000000
_cell_angle_beta   90.00000000
_cell_angle_gamma   90.00000000
_symmetry_Int_Tables_number   1
_chemical_formula_structural   Mo
_chemical_formula_sum   Mo16
_cell_volume   195.31914108
_cell_formula_units_Z   16
loop_
 _symmetry_equiv_pos_site_id
 _symmetry_equiv_pos_as_xyz
  1  'x, y, z'
loop_
 _atom_site_type_symbol
 _atom_site_label
 _atom_site_symmetry_multiplicity
 _atom_site_fract_x
 _atom_site_fract_y
 _atom_site_fract_z
 _atom_site_occupancy
  Mo  Mo0  1  7.28273000  -0.05613590  3.61004000  1
  Mo  Mo1  1  1.94329000  1.77638000  3.82060000  1
  Mo  Mo2  1  1.77907000  -0.11270800  1.83204000  1
  Mo  Mo3  1  7.26696000  1.70348000  1.76357000  1
  Mo  Mo4  1  3.70525000  7.51829000  0.08946300  1
  Mo  Mo5  1  5.38201000  1.98453000  3.75720000  1
  Mo  Mo6  1  5.41374000  7.25066000  1.71794000  1
  Mo  Mo7  1  3.60658000  1.84614000  1.97045000  1
  Mo  Mo8  1  -0.06117940  3.82392000  3.63524000  1
  Mo  Mo9  1  1.87803000  5.50416000  3.69654000  1
  Mo  Mo10  1  1.87806000  3.57790000  1.83734000  1
  Mo  Mo11  1  0.13909300  5.42440000  1.81287000  1
  Mo  Mo12  1  3.59091000  3.52237000  0.01352780  1
  Mo  Mo13  1  5.31703000  5.45524000  -0.12506000  1
  Mo  Mo14  1  5.54824000  3.65383000  1.69411000  1
  Mo  Mo15  1  3.55420000  5.35155000  1.64118000  1
