# generated using pymatgen
data_Mo
_symmetry_space_group_name_H-M   'P 1'
_cell_length_a   7.31012717
_cell_length_b   7.31012717
_cell_length_c   3.65506363
_cell_angle_alpha   90.00000000
_cell_angle_beta   90.00000000
_cell_angle_gamma   90.00000000
_symmetry_Int_Tables_number   1
_chemical_formula_structural   Mo
_chemical_formula_sum   Mo16
_cell_volume   195.31914108
_cell_formula_units_Z   16
loop_
 _symmetry_equiv_pos_site_id
 _symmetry_equiv_pos_as_xyz
  1  'x, y, z'
loop_
 _atom_site_type_symbol
 _atom_site_label
 _atom_site_symmetry_multiplicity
 _atom_site_fract_x
 _atom_site_fract_y
 _atom_site_fract_z
 _atom_site_occupancy
  Mo  Mo0  1  7.14807000  -0.07285370  3.63343000  1
  Mo  Mo1  1  1.76940000  1.65073000  3.57842000  1
  Mo  Mo2  1  1.74768000  -0.14421700  1.76656000  1
  Mo  Mo3  1  7.23082000  1.72607000  1.81726000  1
  Mo  Mo4  1  3.62982000  7.24957000  -0.07702930  1
  Mo  Mo5  1  5.42401000  2.18329000  3.73417000  1
  Mo  Mo6  1  5.36224000  7.24969000  1.80523000  1
  Mo  Mo7  1  3.70382000  1.79063000  1.82139000  1
  Mo  Mo8  1  0.21802700  3.64586000  3.68902000  1
  Mo  Mo9  1  1.89565000  5.42635000  3.64460000  1
  Mo  Mo10  1  1.79926000  3.64647000  1.77235000  1
  Mo  Mo11  1  0.14587000  5.46211000  1.74546000  1
  Mo  Mo12  1  3.51133000  3.69950000  0.07239210  1
  Mo  Mo13  1  5.30002000  5.48859000  0.06828810  1
  Mo  Mo14  1  5.67167000  3.80377000  1.83939000  1
  Mo  Mo15  1  3.66631000  5.41846000  1.85613000  1
