# generated using pymatgen
data_Mo
_symmetry_space_group_name_H-M   'P 1'
_cell_length_a   7.31012717
_cell_length_b   7.31012717
_cell_length_c   3.65506363
_cell_angle_alpha   90.00000000
_cell_angle_beta   90.00000000
_cell_angle_gamma   90.00000000
_symmetry_Int_Tables_number   1
_chemical_formula_structural   Mo
_chemical_formula_sum   Mo16
_cell_volume   195.31914108
_cell_formula_units_Z   16
loop_
 _symmetry_equiv_pos_site_id
 _symmetry_equiv_pos_as_xyz
  1  'x, y, z'
loop_
 _atom_site_type_symbol
 _atom_site_label
 _atom_site_symmetry_multiplicity
 _atom_site_fract_x
 _atom_site_fract_y
 _atom_site_fract_z
 _atom_site_occupancy
  Mo  Mo0  1  7.35008000  -0.01698260  3.72441000  1
  Mo  Mo1  1  1.90605000  1.84831000  3.58396000  1
  Mo  Mo2  1  1.83852000  -0.08340930  1.71067000  1
  Mo  Mo3  1  7.38462000  1.82428000  1.93779000  1
  Mo  Mo4  1  3.54449000  7.45043000  -0.00747497  1
  Mo  Mo5  1  5.54277000  1.58946000  3.71836000  1
  Mo  Mo6  1  5.47451000  7.30566000  1.89765000  1
  Mo  Mo7  1  3.58928000  1.73633000  1.68629000  1
  Mo  Mo8  1  -0.07618550  3.47026000  3.71731000  1
  Mo  Mo9  1  1.81991000  5.51023000  3.66829000  1
  Mo  Mo10  1  1.80824000  3.83439000  1.73949000  1
  Mo  Mo11  1  -0.10561600  5.46846000  1.87011000  1
  Mo  Mo12  1  3.61043000  3.67536000  -0.06441040  1
  Mo  Mo13  1  5.53812000  5.55374000  -0.05939160  1
  Mo  Mo14  1  5.34374000  3.54705000  1.81364000  1
  Mo  Mo15  1  3.65505000  5.51044000  1.83037000  1
