# generated using pymatgen
data_Mo
_symmetry_space_group_name_H-M   'P 1'
_cell_length_a   7.31012717
_cell_length_b   7.31012717
_cell_length_c   3.65506363
_cell_angle_alpha   90.00000000
_cell_angle_beta   90.00000000
_cell_angle_gamma   90.00000000
_symmetry_Int_Tables_number   1
_chemical_formula_structural   Mo
_chemical_formula_sum   Mo16
_cell_volume   195.31914108
_cell_formula_units_Z   16
loop_
 _symmetry_equiv_pos_site_id
 _symmetry_equiv_pos_as_xyz
  1  'x, y, z'
loop_
 _atom_site_type_symbol
 _atom_site_label
 _atom_site_symmetry_multiplicity
 _atom_site_fract_x
 _atom_site_fract_y
 _atom_site_fract_z
 _atom_site_occupancy
  Mo  Mo0  1  7.26634000  -0.17783300  3.57521000  1
  Mo  Mo1  1  1.65033000  1.64795000  3.53826000  1
  Mo  Mo2  1  1.89696000  -0.06334250  1.83170000  1
  Mo  Mo3  1  7.32637000  1.62237000  1.71274000  1
  Mo  Mo4  1  3.54567000  7.24020000  -0.04165040  1
  Mo  Mo5  1  5.59501000  1.88519000  3.57098000  1
  Mo  Mo6  1  5.42751000  7.42289000  1.83429000  1
  Mo  Mo7  1  3.71838000  1.85408000  1.79818000  1
  Mo  Mo8  1  0.05175480  3.73610000  3.70743000  1
  Mo  Mo9  1  1.73327000  5.45342000  3.77168000  1
  Mo  Mo10  1  1.88116000  3.49257000  1.87711000  1
  Mo  Mo11  1  -0.10147200  5.55183000  1.90287000  1
  Mo  Mo12  1  3.56453000  3.84642000  -0.06456040  1
  Mo  Mo13  1  5.45306000  5.51806000  0.09171220  1
  Mo  Mo14  1  5.51160000  3.66753000  1.75705000  1
  Mo  Mo15  1  3.70353000  5.52656000  1.90405000  1
