# generated using pymatgen
data_Mo
_symmetry_space_group_name_H-M   'P 1'
_cell_length_a   7.31012717
_cell_length_b   7.31012717
_cell_length_c   3.65506363
_cell_angle_alpha   90.00000000
_cell_angle_beta   90.00000000
_cell_angle_gamma   90.00000000
_symmetry_Int_Tables_number   1
_chemical_formula_structural   Mo
_chemical_formula_sum   Mo16
_cell_volume   195.31914108
_cell_formula_units_Z   16
loop_
 _symmetry_equiv_pos_site_id
 _symmetry_equiv_pos_as_xyz
  1  'x, y, z'
loop_
 _atom_site_type_symbol
 _atom_site_label
 _atom_site_symmetry_multiplicity
 _atom_site_fract_x
 _atom_site_fract_y
 _atom_site_fract_z
 _atom_site_occupancy
  Mo  Mo0  1  7.34739000  -0.16234400  3.72373000  1
  Mo  Mo1  1  1.67748000  1.88133000  3.71094000  1
  Mo  Mo2  1  1.77100000  0.16533000  1.76970000  1
  Mo  Mo3  1  7.17706000  1.72637000  1.97215000  1
  Mo  Mo4  1  3.60970000  7.15546000  -0.00720287  1
  Mo  Mo5  1  5.59557000  1.68413000  3.67689000  1
  Mo  Mo6  1  5.47253000  7.30202000  1.73219000  1
  Mo  Mo7  1  3.66832000  1.87382000  1.77414000  1
  Mo  Mo8  1  -0.05901210  3.64742000  3.66405000  1
  Mo  Mo9  1  1.93820000  5.52825000  3.58059000  1
  Mo  Mo10  1  1.74160000  3.67522000  1.82903000  1
  Mo  Mo11  1  0.01471310  5.57429000  2.00321000  1
  Mo  Mo12  1  3.71279000  3.69870000  0.02960920  1
  Mo  Mo13  1  5.53289000  5.37362000  -0.16274700  1
  Mo  Mo14  1  5.31323000  3.59808000  1.84202000  1
  Mo  Mo15  1  3.71053000  5.50230000  1.62875000  1
