# generated using pymatgen
data_Mo
_symmetry_space_group_name_H-M   'P 1'
_cell_length_a   7.29789726
_cell_length_b   7.29789726
_cell_length_c   3.64894867
_cell_angle_alpha   90.00000000
_cell_angle_beta   90.00000000
_cell_angle_gamma   90.00000000
_symmetry_Int_Tables_number   1
_chemical_formula_structural   Mo
_chemical_formula_sum   Mo16
_cell_volume   194.34046797
_cell_formula_units_Z   16
loop_
 _symmetry_equiv_pos_site_id
 _symmetry_equiv_pos_as_xyz
  1  'x, y, z'
loop_
 _atom_site_type_symbol
 _atom_site_label
 _atom_site_symmetry_multiplicity
 _atom_site_fract_x
 _atom_site_fract_y
 _atom_site_fract_z
 _atom_site_occupancy
  Mo  Mo0  1  7.22095000  -0.13881600  -0.04403040  1
  Mo  Mo1  1  1.81947000  1.84399000  -0.03433610  1
  Mo  Mo2  1  1.75860000  7.23207000  1.74079000  1
  Mo  Mo3  1  7.29502000  1.71024000  1.82542000  1
  Mo  Mo4  1  3.72504000  7.34039000  3.56466000  1
  Mo  Mo5  1  5.30147000  2.00499000  0.02150570  1
  Mo  Mo6  1  5.63076000  7.33200000  1.91742000  1
  Mo  Mo7  1  3.45258000  1.86241000  1.75550000  1
  Mo  Mo8  1  7.35190000  3.65124000  3.71611000  1
  Mo  Mo9  1  1.81173000  5.32911000  0.00535168  1
  Mo  Mo10  1  1.83866000  3.64771000  1.78433000  1
  Mo  Mo11  1  7.24235000  5.53754000  1.89731000  1
  Mo  Mo12  1  3.69914000  3.60783000  -0.03310860  1
  Mo  Mo13  1  5.42687000  5.54508000  3.68106000  1
  Mo  Mo14  1  5.50163000  3.49807000  1.82775000  1
  Mo  Mo15  1  3.74363000  5.51806000  1.83732000  1
