# generated using pymatgen
data_Mo
_symmetry_space_group_name_H-M   'P 1'
_cell_length_a   7.31012717
_cell_length_b   7.31012717
_cell_length_c   3.65506363
_cell_angle_alpha   90.00000000
_cell_angle_beta   90.00000000
_cell_angle_gamma   90.00000000
_symmetry_Int_Tables_number   1
_chemical_formula_structural   Mo
_chemical_formula_sum   Mo16
_cell_volume   195.31914108
_cell_formula_units_Z   16
loop_
 _symmetry_equiv_pos_site_id
 _symmetry_equiv_pos_as_xyz
  1  'x, y, z'
loop_
 _atom_site_type_symbol
 _atom_site_label
 _atom_site_symmetry_multiplicity
 _atom_site_fract_x
 _atom_site_fract_y
 _atom_site_fract_z
 _atom_site_occupancy
  Mo  Mo0  1  7.13207000  0.01228300  3.69383000  1
  Mo  Mo1  1  1.83826000  1.63095000  3.68175000  1
  Mo  Mo2  1  1.70369000  -0.05488700  1.69068000  1
  Mo  Mo3  1  7.36035000  1.80181000  1.86375000  1
  Mo  Mo4  1  3.69028000  7.23793000  0.04176450  1
  Mo  Mo5  1  5.48927000  1.70589000  3.50012000  1
  Mo  Mo6  1  5.46509000  7.21822000  1.78747000  1
  Mo  Mo7  1  3.51073000  1.85460000  1.77523000  1
  Mo  Mo8  1  0.09697690  3.53375000  3.82994000  1
  Mo  Mo9  1  1.91964000  5.60698000  3.68637000  1
  Mo  Mo10  1  1.67540000  3.81753000  1.88257000  1
  Mo  Mo11  1  -0.02790910  5.64770000  1.74413000  1
  Mo  Mo12  1  3.71709000  3.63093000  0.06915700  1
  Mo  Mo13  1  5.57592000  5.38353000  -0.07355990  1
  Mo  Mo14  1  5.50164000  3.71930000  1.81637000  1
  Mo  Mo15  1  3.57551000  5.47748000  1.77750000  1
