# generated using pymatgen
data_Mo
_symmetry_space_group_name_H-M   'P 1'
_cell_length_a   7.31012717
_cell_length_b   7.31012717
_cell_length_c   3.65506363
_cell_angle_alpha   90.00000000
_cell_angle_beta   90.00000000
_cell_angle_gamma   90.00000000
_symmetry_Int_Tables_number   1
_chemical_formula_structural   Mo
_chemical_formula_sum   Mo16
_cell_volume   195.31914108
_cell_formula_units_Z   16
loop_
 _symmetry_equiv_pos_site_id
 _symmetry_equiv_pos_as_xyz
  1  'x, y, z'
loop_
 _atom_site_type_symbol
 _atom_site_label
 _atom_site_symmetry_multiplicity
 _atom_site_fract_x
 _atom_site_fract_y
 _atom_site_fract_z
 _atom_site_occupancy
  Mo  Mo0  1  7.21947000  -0.23976200  3.77036000  1
  Mo  Mo1  1  1.76141000  1.75389000  3.69572000  1
  Mo  Mo2  1  1.78904000  -0.03720870  1.74383000  1
  Mo  Mo3  1  7.33780000  1.78716000  1.94973000  1
  Mo  Mo4  1  3.65859000  7.48527000  -0.01271530  1
  Mo  Mo5  1  5.46181000  1.86368000  3.82009000  1
  Mo  Mo6  1  5.41493000  7.21952000  1.87813000  1
  Mo  Mo7  1  3.55947000  1.89926000  1.71739000  1
  Mo  Mo8  1  -0.04969760  3.69432000  3.63933000  1
  Mo  Mo9  1  1.91486000  5.61159000  3.54650000  1
  Mo  Mo10  1  1.91419000  3.72953000  1.69829000  1
  Mo  Mo11  1  0.05588150  5.30591000  1.74293000  1
  Mo  Mo12  1  3.66934000  3.62876000  -0.07243550  1
  Mo  Mo13  1  5.43456000  5.41966000  0.04851060  1
  Mo  Mo14  1  5.54308000  3.64876000  1.81508000  1
  Mo  Mo15  1  3.53926000  5.45365000  1.78633000  1
