# generated using pymatgen
data_Mo
_symmetry_space_group_name_H-M   'P 1'
_cell_length_a   7.31012717
_cell_length_b   7.31012717
_cell_length_c   3.65506363
_cell_angle_alpha   90.00000000
_cell_angle_beta   90.00000000
_cell_angle_gamma   90.00000000
_symmetry_Int_Tables_number   1
_chemical_formula_structural   Mo
_chemical_formula_sum   Mo16
_cell_volume   195.31914108
_cell_formula_units_Z   16
loop_
 _symmetry_equiv_pos_site_id
 _symmetry_equiv_pos_as_xyz
  1  'x, y, z'
loop_
 _atom_site_type_symbol
 _atom_site_label
 _atom_site_symmetry_multiplicity
 _atom_site_fract_x
 _atom_site_fract_y
 _atom_site_fract_z
 _atom_site_occupancy
  Mo  Mo0  1  7.34436000  0.13260100  3.62443000  1
  Mo  Mo1  1  1.81711000  1.72814000  3.59881000  1
  Mo  Mo2  1  1.71706000  -0.11599700  1.87546000  1
  Mo  Mo3  1  7.35563000  1.67361000  1.72496000  1
  Mo  Mo4  1  3.80924000  7.34867000  0.02606650  1
  Mo  Mo5  1  5.45847000  1.82559000  3.73241000  1
  Mo  Mo6  1  5.59406000  7.17187000  1.86205000  1
  Mo  Mo7  1  3.57960000  1.75348000  1.82215000  1
  Mo  Mo8  1  -0.12543200  3.58086000  3.55224000  1
  Mo  Mo9  1  1.79658000  5.56013000  3.60712000  1
  Mo  Mo10  1  1.72060000  3.76268000  1.79976000  1
  Mo  Mo11  1  0.03814100  5.46504000  2.00172000  1
  Mo  Mo12  1  3.67213000  3.68077000  -0.17534500  1
  Mo  Mo13  1  5.25857000  5.57018000  0.03596710  1
  Mo  Mo14  1  5.49405000  3.67365000  1.81877000  1
  Mo  Mo15  1  3.69383000  5.41273000  1.86049000  1
