# generated using pymatgen
data_Mo
_symmetry_space_group_name_H-M   'P 1'
_cell_length_a   7.31012717
_cell_length_b   7.31012717
_cell_length_c   3.65506363
_cell_angle_alpha   90.00000000
_cell_angle_beta   90.00000000
_cell_angle_gamma   90.00000000
_symmetry_Int_Tables_number   1
_chemical_formula_structural   Mo
_chemical_formula_sum   Mo16
_cell_volume   195.31914108
_cell_formula_units_Z   16
loop_
 _symmetry_equiv_pos_site_id
 _symmetry_equiv_pos_as_xyz
  1  'x, y, z'
loop_
 _atom_site_type_symbol
 _atom_site_label
 _atom_site_symmetry_multiplicity
 _atom_site_fract_x
 _atom_site_fract_y
 _atom_site_fract_z
 _atom_site_occupancy
  Mo  Mo0  1  7.30101000  -0.04599900  3.58164000  1
  Mo  Mo1  1  1.68252000  1.55123000  3.54592000  1
  Mo  Mo2  1  1.72897000  -0.01336460  1.78594000  1
  Mo  Mo3  1  7.36113000  1.89123000  1.65321000  1
  Mo  Mo4  1  3.68021000  7.15048000  -0.03023820  1
  Mo  Mo5  1  5.60327000  1.77482000  3.61455000  1
  Mo  Mo6  1  5.28962000  7.37040000  1.70252000  1
  Mo  Mo7  1  3.54793000  1.79609000  1.88391000  1
  Mo  Mo8  1  0.22114400  3.75546000  3.63026000  1
  Mo  Mo9  1  1.84519000  5.57513000  3.64869000  1
  Mo  Mo10  1  1.79975000  3.72706000  1.90034000  1
  Mo  Mo11  1  -0.19831000  5.57711000  1.86221000  1
  Mo  Mo12  1  3.59803000  3.54557000  0.01158420  1
  Mo  Mo13  1  5.44741000  5.52504000  0.05979360  1
  Mo  Mo14  1  5.56539000  3.62598000  1.97421000  1
  Mo  Mo15  1  3.75074000  5.41776000  1.94251000  1
