# generated using pymatgen
data_Mo
_symmetry_space_group_name_H-M   'P 1'
_cell_length_a   7.31012717
_cell_length_b   7.31012717
_cell_length_c   3.65506363
_cell_angle_alpha   90.00000000
_cell_angle_beta   90.00000000
_cell_angle_gamma   90.00000000
_symmetry_Int_Tables_number   1
_chemical_formula_structural   Mo
_chemical_formula_sum   Mo16
_cell_volume   195.31914108
_cell_formula_units_Z   16
loop_
 _symmetry_equiv_pos_site_id
 _symmetry_equiv_pos_as_xyz
  1  'x, y, z'
loop_
 _atom_site_type_symbol
 _atom_site_label
 _atom_site_symmetry_multiplicity
 _atom_site_fract_x
 _atom_site_fract_y
 _atom_site_fract_z
 _atom_site_occupancy
  Mo  Mo0  1  7.28811000  -0.11236800  3.84425000  1
  Mo  Mo1  1  1.73415000  1.82737000  3.53114000  1
  Mo  Mo2  1  1.88528000  -0.08082280  1.78798000  1
  Mo  Mo3  1  7.44093000  1.85818000  1.75991000  1
  Mo  Mo4  1  3.59182000  7.37052000  0.14961000  1
  Mo  Mo5  1  5.52047000  1.72133000  3.53425000  1
  Mo  Mo6  1  5.48517000  7.33519000  1.83691000  1
  Mo  Mo7  1  3.48416000  1.71483000  1.92909000  1
  Mo  Mo8  1  -0.08452950  3.66618000  3.69839000  1
  Mo  Mo9  1  1.94253000  5.57049000  3.65233000  1
  Mo  Mo10  1  1.80515000  3.78868000  1.69674000  1
  Mo  Mo11  1  -0.10770700  5.37589000  1.90227000  1
  Mo  Mo12  1  3.64730000  3.56376000  0.03895130  1
  Mo  Mo13  1  5.43788000  5.62083000  -0.14763600  1
  Mo  Mo14  1  5.50619000  3.68343000  1.83709000  1
  Mo  Mo15  1  3.64710000  5.32052000  1.71578000  1
