# generated using pymatgen
data_Mo
_symmetry_space_group_name_H-M   'P 1'
_cell_length_a   7.31012717
_cell_length_b   7.31012717
_cell_length_c   3.65506363
_cell_angle_alpha   90.00000000
_cell_angle_beta   90.00000000
_cell_angle_gamma   90.00000000
_symmetry_Int_Tables_number   1
_chemical_formula_structural   Mo
_chemical_formula_sum   Mo16
_cell_volume   195.31914108
_cell_formula_units_Z   16
loop_
 _symmetry_equiv_pos_site_id
 _symmetry_equiv_pos_as_xyz
  1  'x, y, z'
loop_
 _atom_site_type_symbol
 _atom_site_label
 _atom_site_symmetry_multiplicity
 _atom_site_fract_x
 _atom_site_fract_y
 _atom_site_fract_z
 _atom_site_occupancy
  Mo  Mo0  1  7.45207000  -0.12941600  3.56511000  1
  Mo  Mo1  1  1.84863000  1.92353000  3.71258000  1
  Mo  Mo2  1  1.85597000  0.00588382  1.79746000  1
  Mo  Mo3  1  7.14659000  1.99969000  1.69729000  1
  Mo  Mo4  1  3.43835000  7.27806000  0.08395490  1
  Mo  Mo5  1  5.40623000  1.77220000  3.60604000  1
  Mo  Mo6  1  5.46339000  7.42779000  1.86491000  1
  Mo  Mo7  1  3.66606000  1.79355000  1.86387000  1
  Mo  Mo8  1  0.05261910  3.65955000  3.53191000  1
  Mo  Mo9  1  1.92615000  5.37513000  3.69922000  1
  Mo  Mo10  1  1.75157000  3.59654000  1.90741000  1
  Mo  Mo11  1  -0.04582300  5.48500000  1.84612000  1
  Mo  Mo12  1  3.69216000  3.61370000  -0.04282300  1
  Mo  Mo13  1  5.42602000  5.54232000  0.06127270  1
  Mo  Mo14  1  5.48351000  3.61785000  1.73419000  1
  Mo  Mo15  1  3.66048000  5.26261000  1.83854000  1
