# generated using pymatgen
data_Mo
_symmetry_space_group_name_H-M   'P 1'
_cell_length_a   7.31012717
_cell_length_b   7.31012717
_cell_length_c   3.65506363
_cell_angle_alpha   90.00000000
_cell_angle_beta   90.00000000
_cell_angle_gamma   90.00000000
_symmetry_Int_Tables_number   1
_chemical_formula_structural   Mo
_chemical_formula_sum   Mo16
_cell_volume   195.31914108
_cell_formula_units_Z   16
loop_
 _symmetry_equiv_pos_site_id
 _symmetry_equiv_pos_as_xyz
  1  'x, y, z'
loop_
 _atom_site_type_symbol
 _atom_site_label
 _atom_site_symmetry_multiplicity
 _atom_site_fract_x
 _atom_site_fract_y
 _atom_site_fract_z
 _atom_site_occupancy
  Mo  Mo0  1  7.34592000  0.00862494  3.64517000  1
  Mo  Mo1  1  1.84657000  2.02266000  3.60856000  1
  Mo  Mo2  1  1.87749000  -0.14084500  1.82219000  1
  Mo  Mo3  1  7.35935000  1.86875000  1.95704000  1
  Mo  Mo4  1  3.56416000  7.37526000  -0.00641905  1
  Mo  Mo5  1  5.44915000  1.91562000  3.53353000  1
  Mo  Mo6  1  5.38520000  7.43788000  1.75942000  1
  Mo  Mo7  1  3.52459000  1.73762000  1.79586000  1
  Mo  Mo8  1  -0.14959800  3.50672000  3.73340000  1
  Mo  Mo9  1  1.82042000  5.20275000  3.64233000  1
  Mo  Mo10  1  1.81957000  3.61899000  1.87274000  1
  Mo  Mo11  1  -0.02767680  5.53890000  1.78915000  1
  Mo  Mo12  1  3.79049000  3.70053000  0.08145640  1
  Mo  Mo13  1  5.43285000  5.31508000  -0.11166400  1
  Mo  Mo14  1  5.56047000  3.73195000  1.79414000  1
  Mo  Mo15  1  3.62505000  5.38351000  1.85015000  1
