# generated using pymatgen
data_Mo
_symmetry_space_group_name_H-M   'P 1'
_cell_length_a   7.31012717
_cell_length_b   7.31012717
_cell_length_c   3.65506363
_cell_angle_alpha   90.00000000
_cell_angle_beta   90.00000000
_cell_angle_gamma   90.00000000
_symmetry_Int_Tables_number   1
_chemical_formula_structural   Mo
_chemical_formula_sum   Mo16
_cell_volume   195.31914108
_cell_formula_units_Z   16
loop_
 _symmetry_equiv_pos_site_id
 _symmetry_equiv_pos_as_xyz
  1  'x, y, z'
loop_
 _atom_site_type_symbol
 _atom_site_label
 _atom_site_symmetry_multiplicity
 _atom_site_fract_x
 _atom_site_fract_y
 _atom_site_fract_z
 _atom_site_occupancy
  Mo  Mo0  1  7.37918000  -0.15806700  3.71221000  1
  Mo  Mo1  1  1.81003000  1.84193000  3.59790000  1
  Mo  Mo2  1  1.79213000  -0.05462960  1.92575000  1
  Mo  Mo3  1  7.46947000  1.80287000  1.75382000  1
  Mo  Mo4  1  3.52826000  7.35400000  0.06997800  1
  Mo  Mo5  1  5.54098000  1.67220000  3.66751000  1
  Mo  Mo6  1  5.33979000  7.37699000  1.83893000  1
  Mo  Mo7  1  3.53755000  1.82222000  1.74464000  1
  Mo  Mo8  1  0.05273490  3.60507000  3.51388000  1
  Mo  Mo9  1  1.86852000  5.35495000  3.71138000  1
  Mo  Mo10  1  1.77591000  3.74555000  1.77936000  1
  Mo  Mo11  1  -0.11775800  5.65461000  2.01795000  1
  Mo  Mo12  1  3.66967000  3.67611000  -0.14841600  1
  Mo  Mo13  1  5.33189000  5.40642000  0.09900490  1
  Mo  Mo14  1  5.49974000  3.50049000  1.72371000  1
  Mo  Mo15  1  3.74590000  5.62330000  1.75943000  1
