# generated using pymatgen
data_Mo
_symmetry_space_group_name_H-M   'P 1'
_cell_length_a   7.29789726
_cell_length_b   7.29789726
_cell_length_c   3.64894867
_cell_angle_alpha   90.00000000
_cell_angle_beta   90.00000000
_cell_angle_gamma   90.00000000
_symmetry_Int_Tables_number   1
_chemical_formula_structural   Mo
_chemical_formula_sum   Mo16
_cell_volume   194.34046797
_cell_formula_units_Z   16
loop_
 _symmetry_equiv_pos_site_id
 _symmetry_equiv_pos_as_xyz
  1  'x, y, z'
loop_
 _atom_site_type_symbol
 _atom_site_label
 _atom_site_symmetry_multiplicity
 _atom_site_fract_x
 _atom_site_fract_y
 _atom_site_fract_z
 _atom_site_occupancy
  Mo  Mo0  1  7.18795000  -0.17781500  0.01743180  1
  Mo  Mo1  1  1.69672000  1.77197000  0.00406725  1
  Mo  Mo2  1  1.76661000  7.19232000  1.75117000  1
  Mo  Mo3  1  7.36283000  1.86259000  1.80912000  1
  Mo  Mo4  1  3.60434000  7.34892000  3.53226000  1
  Mo  Mo5  1  5.43012000  1.95812000  0.04263460  1
  Mo  Mo6  1  5.44006000  7.28723000  1.83904000  1
  Mo  Mo7  1  3.67591000  1.81271000  1.82244000  1
  Mo  Mo8  1  7.36659000  3.65014000  3.77147000  1
  Mo  Mo9  1  1.83372000  5.39885000  -0.02531220  1
  Mo  Mo10  1  1.89735000  3.76718000  1.83052000  1
  Mo  Mo11  1  7.28007000  5.29910000  1.79845000  1
  Mo  Mo12  1  3.56198000  3.58093000  0.09782540  1
  Mo  Mo13  1  5.46781000  5.57144000  3.58250000  1
  Mo  Mo14  1  5.40491000  3.71500000  1.82533000  1
  Mo  Mo15  1  3.84282000  5.48321000  1.76410000  1
