# generated using pymatgen
data_Mo
_symmetry_space_group_name_H-M   'P 1'
_cell_length_a   7.31012717
_cell_length_b   7.31012717
_cell_length_c   3.65506363
_cell_angle_alpha   90.00000000
_cell_angle_beta   90.00000000
_cell_angle_gamma   90.00000000
_symmetry_Int_Tables_number   1
_chemical_formula_structural   Mo
_chemical_formula_sum   Mo16
_cell_volume   195.31914108
_cell_formula_units_Z   16
loop_
 _symmetry_equiv_pos_site_id
 _symmetry_equiv_pos_as_xyz
  1  'x, y, z'
loop_
 _atom_site_type_symbol
 _atom_site_label
 _atom_site_symmetry_multiplicity
 _atom_site_fract_x
 _atom_site_fract_y
 _atom_site_fract_z
 _atom_site_occupancy
  Mo  Mo0  1  7.21985000  0.02004730  3.61924000  1
  Mo  Mo1  1  1.71260000  1.81023000  3.66677000  1
  Mo  Mo2  1  1.68677000  -0.10328500  1.75579000  1
  Mo  Mo3  1  7.29751000  1.83140000  1.69184000  1
  Mo  Mo4  1  3.56694000  7.30732000  -0.03432970  1
  Mo  Mo5  1  5.54186000  1.81915000  3.65659000  1
  Mo  Mo6  1  5.48369000  7.18988000  1.71002000  1
  Mo  Mo7  1  3.75148000  1.86161000  1.96689000  1
  Mo  Mo8  1  -0.09231310  3.55603000  3.59891000  1
  Mo  Mo9  1  1.94197000  5.41925000  3.66434000  1
  Mo  Mo10  1  1.94214000  3.59253000  1.82257000  1
  Mo  Mo11  1  -0.03852410  5.62650000  1.71983000  1
  Mo  Mo12  1  3.74174000  3.62706000  0.08546820  1
  Mo  Mo13  1  5.40751000  5.47440000  0.02896830  1
  Mo  Mo14  1  5.56152000  3.78978000  1.92357000  1
  Mo  Mo15  1  3.49925000  5.40211000  1.89058000  1
