# generated using pymatgen
data_Mo
_symmetry_space_group_name_H-M   'P 1'
_cell_length_a   7.31012717
_cell_length_b   7.31012717
_cell_length_c   3.65506363
_cell_angle_alpha   90.00000000
_cell_angle_beta   90.00000000
_cell_angle_gamma   90.00000000
_symmetry_Int_Tables_number   1
_chemical_formula_structural   Mo
_chemical_formula_sum   Mo16
_cell_volume   195.31914108
_cell_formula_units_Z   16
loop_
 _symmetry_equiv_pos_site_id
 _symmetry_equiv_pos_as_xyz
  1  'x, y, z'
loop_
 _atom_site_type_symbol
 _atom_site_label
 _atom_site_symmetry_multiplicity
 _atom_site_fract_x
 _atom_site_fract_y
 _atom_site_fract_z
 _atom_site_occupancy
  Mo  Mo0  1  7.42163000  -0.05391690  3.64021000  1
  Mo  Mo1  1  1.70712000  1.67873000  3.65795000  1
  Mo  Mo2  1  1.75908000  -0.24748200  1.84878000  1
  Mo  Mo3  1  7.27480000  1.82174000  1.84368000  1
  Mo  Mo4  1  3.53125000  7.48855000  -0.16389900  1
  Mo  Mo5  1  5.62231000  1.76455000  3.75855000  1
  Mo  Mo6  1  5.58082000  7.36931000  1.80274000  1
  Mo  Mo7  1  3.73517000  1.79118000  1.91063000  1
  Mo  Mo8  1  -0.00802407  3.68263000  3.61015000  1
  Mo  Mo9  1  1.79817000  5.45573000  3.63494000  1
  Mo  Mo10  1  1.91890000  3.69796000  1.81202000  1
  Mo  Mo11  1  0.00156262  5.58329000  1.83858000  1
  Mo  Mo12  1  3.59065000  3.37445000  -0.00252032  1
  Mo  Mo13  1  5.41728000  5.58757000  -0.07636930  1
  Mo  Mo14  1  5.27556000  3.79141000  1.89931000  1
  Mo  Mo15  1  3.59772000  5.43831000  1.75232000  1
