# generated using pymatgen
data_Mo
_symmetry_space_group_name_H-M   'P 1'
_cell_length_a   7.31012717
_cell_length_b   7.31012717
_cell_length_c   3.65506363
_cell_angle_alpha   90.00000000
_cell_angle_beta   90.00000000
_cell_angle_gamma   90.00000000
_symmetry_Int_Tables_number   1
_chemical_formula_structural   Mo
_chemical_formula_sum   Mo16
_cell_volume   195.31914108
_cell_formula_units_Z   16
loop_
 _symmetry_equiv_pos_site_id
 _symmetry_equiv_pos_as_xyz
  1  'x, y, z'
loop_
 _atom_site_type_symbol
 _atom_site_label
 _atom_site_symmetry_multiplicity
 _atom_site_fract_x
 _atom_site_fract_y
 _atom_site_fract_z
 _atom_site_occupancy
  Mo  Mo0  1  7.45845000  -0.03706180  3.73437000  1
  Mo  Mo1  1  1.94225000  1.91834000  3.69914000  1
  Mo  Mo2  1  1.85197000  -0.16828800  1.87277000  1
  Mo  Mo3  1  7.33814000  1.76988000  1.93716000  1
  Mo  Mo4  1  3.56931000  7.27386000  -0.08612140  1
  Mo  Mo5  1  5.54025000  1.92377000  3.70689000  1
  Mo  Mo6  1  5.49414000  7.24911000  1.84368000  1
  Mo  Mo7  1  3.63575000  1.62958000  1.82729000  1
  Mo  Mo8  1  -0.10597700  3.88763000  3.61083000  1
  Mo  Mo9  1  1.69600000  5.45293000  3.63393000  1
  Mo  Mo10  1  1.85901000  3.63362000  1.82141000  1
  Mo  Mo11  1  -0.10514700  5.47803000  1.62917000  1
  Mo  Mo12  1  3.54362000  3.70816000  -0.14850400  1
  Mo  Mo13  1  5.33619000  5.47523000  -0.00100134  1
  Mo  Mo14  1  5.43604000  3.59778000  1.83770000  1
  Mo  Mo15  1  3.73401000  5.43144000  1.84838000  1
