# generated using pymatgen
data_Mo
_symmetry_space_group_name_H-M   'P 1'
_cell_length_a   7.31012717
_cell_length_b   7.31012717
_cell_length_c   3.65506363
_cell_angle_alpha   90.00000000
_cell_angle_beta   90.00000000
_cell_angle_gamma   90.00000000
_symmetry_Int_Tables_number   1
_chemical_formula_structural   Mo
_chemical_formula_sum   Mo16
_cell_volume   195.31914108
_cell_formula_units_Z   16
loop_
 _symmetry_equiv_pos_site_id
 _symmetry_equiv_pos_as_xyz
  1  'x, y, z'
loop_
 _atom_site_type_symbol
 _atom_site_label
 _atom_site_symmetry_multiplicity
 _atom_site_fract_x
 _atom_site_fract_y
 _atom_site_fract_z
 _atom_site_occupancy
  Mo  Mo0  1  7.42053000  0.04472190  3.72508000  1
  Mo  Mo1  1  1.75272000  1.86224000  3.45738000  1
  Mo  Mo2  1  1.84578000  -0.20362600  1.87608000  1
  Mo  Mo3  1  7.24333000  2.05125000  1.81409000  1
  Mo  Mo4  1  3.43264000  7.33187000  0.10991900  1
  Mo  Mo5  1  5.47030000  1.68754000  3.54820000  1
  Mo  Mo6  1  5.47805000  7.40841000  1.75622000  1
  Mo  Mo7  1  3.66409000  1.92150000  1.80186000  1
  Mo  Mo8  1  -0.13608600  3.65883000  3.63745000  1
  Mo  Mo9  1  1.93973000  5.26581000  3.64816000  1
  Mo  Mo10  1  1.79238000  3.78810000  1.74726000  1
  Mo  Mo11  1  -0.03707100  5.35250000  1.94623000  1
  Mo  Mo12  1  3.71281000  3.54576000  0.05084110  1
  Mo  Mo13  1  5.41399000  5.52234000  -0.01690990  1
  Mo  Mo14  1  5.47364000  3.68674000  1.83631000  1
  Mo  Mo15  1  3.75716000  5.30000000  1.82891000  1
