# generated using pymatgen
data_Mo
_symmetry_space_group_name_H-M   'P 1'
_cell_length_a   7.31012717
_cell_length_b   7.31012717
_cell_length_c   3.65506363
_cell_angle_alpha   90.00000000
_cell_angle_beta   90.00000000
_cell_angle_gamma   90.00000000
_symmetry_Int_Tables_number   1
_chemical_formula_structural   Mo
_chemical_formula_sum   Mo16
_cell_volume   195.31914108
_cell_formula_units_Z   16
loop_
 _symmetry_equiv_pos_site_id
 _symmetry_equiv_pos_as_xyz
  1  'x, y, z'
loop_
 _atom_site_type_symbol
 _atom_site_label
 _atom_site_symmetry_multiplicity
 _atom_site_fract_x
 _atom_site_fract_y
 _atom_site_fract_z
 _atom_site_occupancy
  Mo  Mo0  1  7.25075000  -0.07193100  3.61952000  1
  Mo  Mo1  1  1.69258000  1.72555000  3.53083000  1
  Mo  Mo2  1  1.71846000  -0.05244930  1.86266000  1
  Mo  Mo3  1  7.31753000  1.92251000  1.92275000  1
  Mo  Mo4  1  3.66213000  7.33835000  0.05297430  1
  Mo  Mo5  1  5.51010000  1.81478000  3.70659000  1
  Mo  Mo6  1  5.57300000  7.38939000  1.92590000  1
  Mo  Mo7  1  3.63556000  1.79819000  1.75655000  1
  Mo  Mo8  1  0.04166250  3.70729000  3.74000000  1
  Mo  Mo9  1  1.87778000  5.30177000  3.55177000  1
  Mo  Mo10  1  1.99605000  3.74774000  1.59851000  1
  Mo  Mo11  1  -0.02633110  5.28841000  1.84895000  1
  Mo  Mo12  1  3.68057000  3.49490000  0.01381460  1
  Mo  Mo13  1  5.28607000  5.57968000  0.00169405  1
  Mo  Mo14  1  5.29662000  3.57762000  1.84810000  1
  Mo  Mo15  1  3.71146000  5.66221000  1.78645000  1
