# generated using pymatgen
data_Mo
_symmetry_space_group_name_H-M   'P 1'
_cell_length_a   7.31012717
_cell_length_b   7.31012717
_cell_length_c   3.65506363
_cell_angle_alpha   90.00000000
_cell_angle_beta   90.00000000
_cell_angle_gamma   90.00000000
_symmetry_Int_Tables_number   1
_chemical_formula_structural   Mo
_chemical_formula_sum   Mo16
_cell_volume   195.31914108
_cell_formula_units_Z   16
loop_
 _symmetry_equiv_pos_site_id
 _symmetry_equiv_pos_as_xyz
  1  'x, y, z'
loop_
 _atom_site_type_symbol
 _atom_site_label
 _atom_site_symmetry_multiplicity
 _atom_site_fract_x
 _atom_site_fract_y
 _atom_site_fract_z
 _atom_site_occupancy
  Mo  Mo0  1  7.19613000  0.02582070  3.81623000  1
  Mo  Mo1  1  1.83344000  1.71854000  3.57679000  1
  Mo  Mo2  1  1.84858000  0.01005190  1.92679000  1
  Mo  Mo3  1  7.43025000  1.64711000  1.95619000  1
  Mo  Mo4  1  3.63868000  7.27614000  0.00309383  1
  Mo  Mo5  1  5.52130000  1.82346000  3.50979000  1
  Mo  Mo6  1  5.45610000  7.26772000  1.60465000  1
  Mo  Mo7  1  3.57587000  1.69109000  1.85055000  1
  Mo  Mo8  1  0.07607760  3.52465000  3.76669000  1
  Mo  Mo9  1  1.76356000  5.47594000  3.72808000  1
  Mo  Mo10  1  1.62552000  3.73719000  1.81255000  1
  Mo  Mo11  1  -0.07249980  5.61854000  1.76588000  1
  Mo  Mo12  1  3.64200000  3.73751000  -0.00224809  1
  Mo  Mo13  1  5.56041000  5.41254000  -0.02160530  1
  Mo  Mo14  1  5.50547000  3.69307000  1.77687000  1
  Mo  Mo15  1  3.62311000  5.56463000  1.69675000  1
