# generated using pymatgen
data_Mo
_symmetry_space_group_name_H-M   'P 1'
_cell_length_a   7.31012717
_cell_length_b   7.31012717
_cell_length_c   3.65506363
_cell_angle_alpha   90.00000000
_cell_angle_beta   90.00000000
_cell_angle_gamma   90.00000000
_symmetry_Int_Tables_number   1
_chemical_formula_structural   Mo
_chemical_formula_sum   Mo16
_cell_volume   195.31914108
_cell_formula_units_Z   16
loop_
 _symmetry_equiv_pos_site_id
 _symmetry_equiv_pos_as_xyz
  1  'x, y, z'
loop_
 _atom_site_type_symbol
 _atom_site_label
 _atom_site_symmetry_multiplicity
 _atom_site_fract_x
 _atom_site_fract_y
 _atom_site_fract_z
 _atom_site_occupancy
  Mo  Mo0  1  7.23766000  -0.17577800  3.72672000  1
  Mo  Mo1  1  1.73749000  1.74435000  3.61154000  1
  Mo  Mo2  1  2.00964000  0.01941300  1.78276000  1
  Mo  Mo3  1  7.38085000  1.76812000  1.75013000  1
  Mo  Mo4  1  3.89199000  7.46900000  0.00295226  1
  Mo  Mo5  1  5.61346000  1.92959000  3.72905000  1
  Mo  Mo6  1  5.50428000  7.27586000  1.88765000  1
  Mo  Mo7  1  3.66328000  1.62238000  1.90290000  1
  Mo  Mo8  1  -0.02133160  3.87766000  3.54694000  1
  Mo  Mo9  1  1.76470000  5.48477000  3.56875000  1
  Mo  Mo10  1  1.75819000  3.67148000  1.82006000  1
  Mo  Mo11  1  0.08862750  5.59944000  1.83824000  1
  Mo  Mo12  1  3.45163000  3.41528000  -0.03821320  1
  Mo  Mo13  1  5.27614000  5.48125000  0.00504955  1
  Mo  Mo14  1  5.29648000  3.53590000  1.93931000  1
  Mo  Mo15  1  3.57093000  5.50527000  1.69322000  1
