# generated using pymatgen
data_Mo
_symmetry_space_group_name_H-M   'P 1'
_cell_length_a   7.31012717
_cell_length_b   7.31012717
_cell_length_c   3.65506363
_cell_angle_alpha   90.00000000
_cell_angle_beta   90.00000000
_cell_angle_gamma   90.00000000
_symmetry_Int_Tables_number   1
_chemical_formula_structural   Mo
_chemical_formula_sum   Mo16
_cell_volume   195.31914108
_cell_formula_units_Z   16
loop_
 _symmetry_equiv_pos_site_id
 _symmetry_equiv_pos_as_xyz
  1  'x, y, z'
loop_
 _atom_site_type_symbol
 _atom_site_label
 _atom_site_symmetry_multiplicity
 _atom_site_fract_x
 _atom_site_fract_y
 _atom_site_fract_z
 _atom_site_occupancy
  Mo  Mo0  1  7.14909000  0.14966300  3.71665000  1
  Mo  Mo1  1  1.87880000  1.78983000  3.45189000  1
  Mo  Mo2  1  1.83442000  -0.09754830  1.82419000  1
  Mo  Mo3  1  7.31571000  1.86114000  1.81841000  1
  Mo  Mo4  1  3.52774000  7.29933000  -0.01032050  1
  Mo  Mo5  1  5.37510000  1.85172000  3.53723000  1
  Mo  Mo6  1  5.50300000  7.09833000  1.80608000  1
  Mo  Mo7  1  3.68908000  1.61805000  1.71772000  1
  Mo  Mo8  1  0.06755830  3.58608000  3.74450000  1
  Mo  Mo9  1  1.84886000  5.47820000  3.76267000  1
  Mo  Mo10  1  1.71691000  3.56384000  1.71624000  1
  Mo  Mo11  1  0.12874700  5.41962000  1.79744000  1
  Mo  Mo12  1  3.73614000  3.66156000  0.17951700  1
  Mo  Mo13  1  5.32254000  5.53384000  0.05166190  1
  Mo  Mo14  1  5.56056000  3.89823000  1.85244000  1
  Mo  Mo15  1  3.56974000  5.51212000  1.80075000  1
