# generated using pymatgen
data_Mo
_symmetry_space_group_name_H-M   'P 1'
_cell_length_a   7.29789726
_cell_length_b   7.29789726
_cell_length_c   3.64894867
_cell_angle_alpha   90.00000000
_cell_angle_beta   90.00000000
_cell_angle_gamma   90.00000000
_symmetry_Int_Tables_number   1
_chemical_formula_structural   Mo
_chemical_formula_sum   Mo16
_cell_volume   194.34046797
_cell_formula_units_Z   16
loop_
 _symmetry_equiv_pos_site_id
 _symmetry_equiv_pos_as_xyz
  1  'x, y, z'
loop_
 _atom_site_type_symbol
 _atom_site_label
 _atom_site_symmetry_multiplicity
 _atom_site_fract_x
 _atom_site_fract_y
 _atom_site_fract_z
 _atom_site_occupancy
  Mo  Mo0  1  7.18406000  -0.07324730  -0.04145870  1
  Mo  Mo1  1  1.70862000  1.67134000  0.06817410  1
  Mo  Mo2  1  1.83908000  7.35697000  1.81002000  1
  Mo  Mo3  1  7.37146000  1.73401000  1.74856000  1
  Mo  Mo4  1  3.72848000  7.44276000  3.54852000  1
  Mo  Mo5  1  5.64609000  1.83038000  -0.05219410  1
  Mo  Mo6  1  5.48552000  7.37016000  1.87357000  1
  Mo  Mo7  1  3.35398000  1.78732000  1.79347000  1
  Mo  Mo8  1  7.28755000  3.66623000  3.60767000  1
  Mo  Mo9  1  1.87575000  5.49494000  0.07931870  1
  Mo  Mo10  1  1.79068000  3.74806000  1.77642000  1
  Mo  Mo11  1  7.28697000  5.40638000  1.86047000  1
  Mo  Mo12  1  3.70628000  3.52520000  -0.03188500  1
  Mo  Mo13  1  5.40076000  5.55492000  3.72647000  1
  Mo  Mo14  1  5.38908000  3.56531000  1.83968000  1
  Mo  Mo15  1  3.76544000  5.44117000  1.85626000  1
