# generated using pymatgen
data_Mo
_symmetry_space_group_name_H-M   'P 1'
_cell_length_a   7.31012717
_cell_length_b   7.31012717
_cell_length_c   3.65506363
_cell_angle_alpha   90.00000000
_cell_angle_beta   90.00000000
_cell_angle_gamma   90.00000000
_symmetry_Int_Tables_number   1
_chemical_formula_structural   Mo
_chemical_formula_sum   Mo16
_cell_volume   195.31914108
_cell_formula_units_Z   16
loop_
 _symmetry_equiv_pos_site_id
 _symmetry_equiv_pos_as_xyz
  1  'x, y, z'
loop_
 _atom_site_type_symbol
 _atom_site_label
 _atom_site_symmetry_multiplicity
 _atom_site_fract_x
 _atom_site_fract_y
 _atom_site_fract_z
 _atom_site_occupancy
  Mo  Mo0  1  7.38453000  -0.04605950  3.52978000  1
  Mo  Mo1  1  1.63213000  1.79952000  3.70350000  1
  Mo  Mo2  1  1.75527000  -0.05996300  1.84336000  1
  Mo  Mo3  1  7.23090000  1.72491000  1.74206000  1
  Mo  Mo4  1  3.45614000  7.47982000  0.02397570  1
  Mo  Mo5  1  5.57235000  1.67846000  3.50598000  1
  Mo  Mo6  1  5.47103000  7.16487000  1.79509000  1
  Mo  Mo7  1  3.62549000  1.85902000  1.84153000  1
  Mo  Mo8  1  -0.02212390  3.63321000  3.58743000  1
  Mo  Mo9  1  1.93487000  5.58238000  3.69115000  1
  Mo  Mo10  1  1.96389000  3.88050000  1.93207000  1
  Mo  Mo11  1  -0.02770580  5.55029000  1.86441000  1
  Mo  Mo12  1  3.62267000  3.49937000  0.09542340  1
  Mo  Mo13  1  5.49011000  5.51238000  0.05982460  1
  Mo  Mo14  1  5.38561000  3.50150000  1.84127000  1
  Mo  Mo15  1  3.74884000  5.46380000  1.71020000  1
