# generated using pymatgen
data_Mo
_symmetry_space_group_name_H-M   'P 1'
_cell_length_a   7.31012717
_cell_length_b   7.31012717
_cell_length_c   3.65506363
_cell_angle_alpha   90.00000000
_cell_angle_beta   90.00000000
_cell_angle_gamma   90.00000000
_symmetry_Int_Tables_number   1
_chemical_formula_structural   Mo
_chemical_formula_sum   Mo16
_cell_volume   195.31914108
_cell_formula_units_Z   16
loop_
 _symmetry_equiv_pos_site_id
 _symmetry_equiv_pos_as_xyz
  1  'x, y, z'
loop_
 _atom_site_type_symbol
 _atom_site_label
 _atom_site_symmetry_multiplicity
 _atom_site_fract_x
 _atom_site_fract_y
 _atom_site_fract_z
 _atom_site_occupancy
  Mo  Mo0  1  7.26445000  -0.20044800  3.46821000  1
  Mo  Mo1  1  1.85916000  1.89552000  3.64778000  1
  Mo  Mo2  1  1.72147000  0.11799400  1.90763000  1
  Mo  Mo3  1  7.18745000  1.93858000  1.88835000  1
  Mo  Mo4  1  3.56645000  7.21024000  0.02533440  1
  Mo  Mo5  1  5.49542000  1.66962000  3.54250000  1
  Mo  Mo6  1  5.66512000  7.42014000  1.76700000  1
  Mo  Mo7  1  3.70169000  1.70064000  1.67473000  1
  Mo  Mo8  1  -0.03190470  3.79659000  3.70616000  1
  Mo  Mo9  1  1.87643000  5.44452000  3.73608000  1
  Mo  Mo10  1  1.83880000  3.57061000  1.90680000  1
  Mo  Mo11  1  0.13348600  5.47991000  1.82568000  1
  Mo  Mo12  1  3.58875000  3.68248000  -0.05184280  1
  Mo  Mo13  1  5.50816000  5.38173000  0.01296650  1
  Mo  Mo14  1  5.34400000  3.56968000  1.78669000  1
  Mo  Mo15  1  3.50507000  5.54620000  1.92300000  1
