# generated using pymatgen
data_Mo
_symmetry_space_group_name_H-M   'P 1'
_cell_length_a   7.31012717
_cell_length_b   7.31012717
_cell_length_c   3.65506363
_cell_angle_alpha   90.00000000
_cell_angle_beta   90.00000000
_cell_angle_gamma   90.00000000
_symmetry_Int_Tables_number   1
_chemical_formula_structural   Mo
_chemical_formula_sum   Mo16
_cell_volume   195.31914108
_cell_formula_units_Z   16
loop_
 _symmetry_equiv_pos_site_id
 _symmetry_equiv_pos_as_xyz
  1  'x, y, z'
loop_
 _atom_site_type_symbol
 _atom_site_label
 _atom_site_symmetry_multiplicity
 _atom_site_fract_x
 _atom_site_fract_y
 _atom_site_fract_z
 _atom_site_occupancy
  Mo  Mo0  1  7.24790000  -0.13131400  3.74097000  1
  Mo  Mo1  1  1.80970000  1.63069000  3.71650000  1
  Mo  Mo2  1  1.76684000  -0.13837100  1.83495000  1
  Mo  Mo3  1  7.21728000  1.72684000  1.75492000  1
  Mo  Mo4  1  3.61977000  7.55200000  -0.04097850  1
  Mo  Mo5  1  5.43624000  1.72990000  3.81267000  1
  Mo  Mo6  1  5.48333000  7.33831000  1.90912000  1
  Mo  Mo7  1  3.74876000  1.85785000  1.80747000  1
  Mo  Mo8  1  0.14748800  3.85329000  3.71775000  1
  Mo  Mo9  1  1.93618000  5.49145000  3.63937000  1
  Mo  Mo10  1  1.77087000  3.62031000  1.75170000  1
  Mo  Mo11  1  -0.07868580  5.43148000  1.84749000  1
  Mo  Mo12  1  3.59816000  3.50368000  0.00971236  1
  Mo  Mo13  1  5.31753000  5.52957000  -0.01502250  1
  Mo  Mo14  1  5.55957000  3.66462000  1.57645000  1
  Mo  Mo15  1  3.64305000  5.56370000  1.70397000  1
