# generated using pymatgen
data_Mo
_symmetry_space_group_name_H-M   'P 1'
_cell_length_a   7.31012717
_cell_length_b   7.31012717
_cell_length_c   3.65506363
_cell_angle_alpha   90.00000000
_cell_angle_beta   90.00000000
_cell_angle_gamma   90.00000000
_symmetry_Int_Tables_number   1
_chemical_formula_structural   Mo
_chemical_formula_sum   Mo16
_cell_volume   195.31914108
_cell_formula_units_Z   16
loop_
 _symmetry_equiv_pos_site_id
 _symmetry_equiv_pos_as_xyz
  1  'x, y, z'
loop_
 _atom_site_type_symbol
 _atom_site_label
 _atom_site_symmetry_multiplicity
 _atom_site_fract_x
 _atom_site_fract_y
 _atom_site_fract_z
 _atom_site_occupancy
  Mo  Mo0  1  7.25524000  -0.27107000  3.78812000  1
  Mo  Mo1  1  1.85308000  1.97840000  3.53084000  1
  Mo  Mo2  1  1.70789000  0.07272480  1.72856000  1
  Mo  Mo3  1  7.20725000  1.78164000  1.82069000  1
  Mo  Mo4  1  3.60726000  7.17980000  0.10294300  1
  Mo  Mo5  1  5.42915000  1.96974000  3.74863000  1
  Mo  Mo6  1  5.52903000  7.28993000  1.87033000  1
  Mo  Mo7  1  3.72817000  1.82246000  1.79030000  1
  Mo  Mo8  1  0.02332220  3.67955000  3.69869000  1
  Mo  Mo9  1  1.86230000  5.34252000  3.64521000  1
  Mo  Mo10  1  1.88598000  3.57718000  1.57738000  1
  Mo  Mo11  1  0.06343200  5.23582000  1.84023000  1
  Mo  Mo12  1  3.71519000  3.78171000  -0.02742930  1
  Mo  Mo13  1  5.40475000  5.56140000  0.04071860  1
  Mo  Mo14  1  5.46011000  3.60277000  1.87807000  1
  Mo  Mo15  1  3.49184000  5.61942000  1.73379000  1
