# generated using pymatgen
data_Mo
_symmetry_space_group_name_H-M   'P 1'
_cell_length_a   7.31012717
_cell_length_b   7.31012717
_cell_length_c   3.65506363
_cell_angle_alpha   90.00000000
_cell_angle_beta   90.00000000
_cell_angle_gamma   90.00000000
_symmetry_Int_Tables_number   1
_chemical_formula_structural   Mo
_chemical_formula_sum   Mo16
_cell_volume   195.31914108
_cell_formula_units_Z   16
loop_
 _symmetry_equiv_pos_site_id
 _symmetry_equiv_pos_as_xyz
  1  'x, y, z'
loop_
 _atom_site_type_symbol
 _atom_site_label
 _atom_site_symmetry_multiplicity
 _atom_site_fract_x
 _atom_site_fract_y
 _atom_site_fract_z
 _atom_site_occupancy
  Mo  Mo0  1  7.46587000  0.10584000  3.69689000  1
  Mo  Mo1  1  1.69722000  1.83664000  3.44778000  1
  Mo  Mo2  1  1.78612000  -0.15566100  1.81972000  1
  Mo  Mo3  1  7.28668000  1.86043000  1.85168000  1
  Mo  Mo4  1  3.55551000  7.16510000  -0.08454080  1
  Mo  Mo5  1  5.28973000  1.65140000  3.67907000  1
  Mo  Mo6  1  5.56601000  7.32723000  1.89332000  1
  Mo  Mo7  1  3.63811000  1.71457000  1.90822000  1
  Mo  Mo8  1  -0.04206980  3.57097000  3.63890000  1
  Mo  Mo9  1  1.79929000  5.47257000  3.57750000  1
  Mo  Mo10  1  1.89822000  3.78539000  1.88750000  1
  Mo  Mo11  1  -0.07710770  5.41936000  1.71851000  1
  Mo  Mo12  1  3.65000000  3.55274000  0.07730060  1
  Mo  Mo13  1  5.57085000  5.68785000  -0.04581350  1
  Mo  Mo14  1  5.39287000  3.65707000  1.83439000  1
  Mo  Mo15  1  3.74669000  5.57250000  1.86663000  1
