# generated using pymatgen
data_Mo
_symmetry_space_group_name_H-M   'P 1'
_cell_length_a   7.31012717
_cell_length_b   7.31012717
_cell_length_c   3.65506363
_cell_angle_alpha   90.00000000
_cell_angle_beta   90.00000000
_cell_angle_gamma   90.00000000
_symmetry_Int_Tables_number   1
_chemical_formula_structural   Mo
_chemical_formula_sum   Mo16
_cell_volume   195.31914108
_cell_formula_units_Z   16
loop_
 _symmetry_equiv_pos_site_id
 _symmetry_equiv_pos_as_xyz
  1  'x, y, z'
loop_
 _atom_site_type_symbol
 _atom_site_label
 _atom_site_symmetry_multiplicity
 _atom_site_fract_x
 _atom_site_fract_y
 _atom_site_fract_z
 _atom_site_occupancy
  Mo  Mo0  1  7.51547000  -0.00954334  3.52775000  1
  Mo  Mo1  1  1.86960000  1.99395000  3.68019000  1
  Mo  Mo2  1  1.84938000  -0.12025300  1.76477000  1
  Mo  Mo3  1  7.34230000  1.89367000  1.76649000  1
  Mo  Mo4  1  3.52079000  7.31659000  -0.01645760  1
  Mo  Mo5  1  5.54536000  1.77858000  3.83644000  1
  Mo  Mo6  1  5.35360000  7.38192000  1.78802000  1
  Mo  Mo7  1  3.67978000  1.95392000  1.88712000  1
  Mo  Mo8  1  -0.06491710  3.54045000  3.58510000  1
  Mo  Mo9  1  1.80315000  5.49857000  3.58981000  1
  Mo  Mo10  1  1.73538000  3.72432000  1.86105000  1
  Mo  Mo11  1  -0.14151300  5.22656000  1.77971000  1
  Mo  Mo12  1  3.73039000  3.62691000  0.08435610  1
  Mo  Mo13  1  5.39151000  5.54983000  -0.03609200  1
  Mo  Mo14  1  5.42908000  3.55211000  1.88981000  1
  Mo  Mo15  1  3.66463000  5.31643000  1.77899000  1
