# generated using pymatgen
data_Mo
_symmetry_space_group_name_H-M   'P 1'
_cell_length_a   7.31012717
_cell_length_b   7.31012717
_cell_length_c   3.65506363
_cell_angle_alpha   90.00000000
_cell_angle_beta   90.00000000
_cell_angle_gamma   90.00000000
_symmetry_Int_Tables_number   1
_chemical_formula_structural   Mo
_chemical_formula_sum   Mo16
_cell_volume   195.31914108
_cell_formula_units_Z   16
loop_
 _symmetry_equiv_pos_site_id
 _symmetry_equiv_pos_as_xyz
  1  'x, y, z'
loop_
 _atom_site_type_symbol
 _atom_site_label
 _atom_site_symmetry_multiplicity
 _atom_site_fract_x
 _atom_site_fract_y
 _atom_site_fract_z
 _atom_site_occupancy
  Mo  Mo0  1  7.18795000  0.04282680  3.52886000  1
  Mo  Mo1  1  1.67892000  1.74900000  3.76971000  1
  Mo  Mo2  1  1.73458000  -0.12629500  1.82781000  1
  Mo  Mo3  1  7.34473000  1.69335000  1.77119000  1
  Mo  Mo4  1  3.76579000  7.34894000  -0.09660600  1
  Mo  Mo5  1  5.49352000  1.87982000  3.68352000  1
  Mo  Mo6  1  5.37207000  7.16556000  1.72790000  1
  Mo  Mo7  1  3.50340000  1.68701000  1.65188000  1
  Mo  Mo8  1  0.04879430  3.66130000  3.59872000  1
  Mo  Mo9  1  1.90813000  5.57690000  3.71570000  1
  Mo  Mo10  1  1.78182000  3.58497000  1.92829000  1
  Mo  Mo11  1  0.10516100  5.57342000  2.00528000  1
  Mo  Mo12  1  3.56972000  3.56246000  0.03933340  1
  Mo  Mo13  1  5.36844000  5.39585000  0.01214680  1
  Mo  Mo14  1  5.68730000  3.82968000  1.85755000  1
  Mo  Mo15  1  3.67369000  5.59920000  1.74578000  1
