# generated using pymatgen
data_Mo
_symmetry_space_group_name_H-M   'P 1'
_cell_length_a   7.31012717
_cell_length_b   7.31012717
_cell_length_c   3.65506363
_cell_angle_alpha   90.00000000
_cell_angle_beta   90.00000000
_cell_angle_gamma   90.00000000
_symmetry_Int_Tables_number   1
_chemical_formula_structural   Mo
_chemical_formula_sum   Mo16
_cell_volume   195.31914108
_cell_formula_units_Z   16
loop_
 _symmetry_equiv_pos_site_id
 _symmetry_equiv_pos_as_xyz
  1  'x, y, z'
loop_
 _atom_site_type_symbol
 _atom_site_label
 _atom_site_symmetry_multiplicity
 _atom_site_fract_x
 _atom_site_fract_y
 _atom_site_fract_z
 _atom_site_occupancy
  Mo  Mo0  1  7.30566000  -0.01408920  3.53826000  1
  Mo  Mo1  1  1.72692000  1.81153000  3.66743000  1
  Mo  Mo2  1  1.69405000  -0.19604000  1.79045000  1
  Mo  Mo3  1  7.20046000  2.06074000  1.89531000  1
  Mo  Mo4  1  3.63299000  7.38931000  -0.02513310  1
  Mo  Mo5  1  5.53298000  1.75205000  3.76994000  1
  Mo  Mo6  1  5.39828000  7.18625000  1.79185000  1
  Mo  Mo7  1  3.69914000  1.71103000  1.77676000  1
  Mo  Mo8  1  0.08360290  3.70005000  3.64895000  1
  Mo  Mo9  1  1.83706000  5.44969000  3.63260000  1
  Mo  Mo10  1  1.94193000  3.73812000  1.84890000  1
  Mo  Mo11  1  0.08927980  5.47437000  1.86237000  1
  Mo  Mo12  1  3.65120000  3.40961000  -0.13140900  1
  Mo  Mo13  1  5.44136000  5.56691000  -0.11333400  1
  Mo  Mo14  1  5.40566000  3.73629000  2.01480000  1
  Mo  Mo15  1  3.58342000  5.44818000  1.79930000  1
