# generated using pymatgen
data_Mo
_symmetry_space_group_name_H-M   'P 1'
_cell_length_a   7.31012717
_cell_length_b   7.31012717
_cell_length_c   3.65506363
_cell_angle_alpha   90.00000000
_cell_angle_beta   90.00000000
_cell_angle_gamma   90.00000000
_symmetry_Int_Tables_number   1
_chemical_formula_structural   Mo
_chemical_formula_sum   Mo16
_cell_volume   195.31914108
_cell_formula_units_Z   16
loop_
 _symmetry_equiv_pos_site_id
 _symmetry_equiv_pos_as_xyz
  1  'x, y, z'
loop_
 _atom_site_type_symbol
 _atom_site_label
 _atom_site_symmetry_multiplicity
 _atom_site_fract_x
 _atom_site_fract_y
 _atom_site_fract_z
 _atom_site_occupancy
  Mo  Mo0  1  7.47297000  -0.01450360  3.55019000  1
  Mo  Mo1  1  1.71495000  1.94788000  3.59679000  1
  Mo  Mo2  1  1.95408000  -0.18509400  1.80404000  1
  Mo  Mo3  1  7.44467000  1.70650000  1.64871000  1
  Mo  Mo4  1  3.50379000  7.18595000  -0.14945600  1
  Mo  Mo5  1  5.54591000  1.85161000  3.67532000  1
  Mo  Mo6  1  5.47429000  7.38394000  1.83646000  1
  Mo  Mo7  1  3.50497000  1.69632000  2.05627000  1
  Mo  Mo8  1  -0.15002400  3.85851000  3.74075000  1
  Mo  Mo9  1  1.77032000  5.28747000  3.69302000  1
  Mo  Mo10  1  1.81098000  3.64307000  1.80436000  1
  Mo  Mo11  1  -0.13678500  5.48649000  1.88166000  1
  Mo  Mo12  1  3.64570000  3.65983000  0.04141740  1
  Mo  Mo13  1  5.37200000  5.61405000  -0.06634150  1
  Mo  Mo14  1  5.45753000  3.59004000  1.96598000  1
  Mo  Mo15  1  3.83865000  5.51193000  1.68789000  1
