# generated using pymatgen
data_Mo
_symmetry_space_group_name_H-M   'P 1'
_cell_length_a   7.31012717
_cell_length_b   7.31012717
_cell_length_c   3.65506363
_cell_angle_alpha   90.00000000
_cell_angle_beta   90.00000000
_cell_angle_gamma   90.00000000
_symmetry_Int_Tables_number   1
_chemical_formula_structural   Mo
_chemical_formula_sum   Mo16
_cell_volume   195.31914108
_cell_formula_units_Z   16
loop_
 _symmetry_equiv_pos_site_id
 _symmetry_equiv_pos_as_xyz
  1  'x, y, z'
loop_
 _atom_site_type_symbol
 _atom_site_label
 _atom_site_symmetry_multiplicity
 _atom_site_fract_x
 _atom_site_fract_y
 _atom_site_fract_z
 _atom_site_occupancy
  Mo  Mo0  1  7.33837000  -0.17598200  3.76426000  1
  Mo  Mo1  1  1.77604000  2.04866000  3.58348000  1
  Mo  Mo2  1  1.85044000  -0.04685040  1.76533000  1
  Mo  Mo3  1  7.21703000  1.82603000  1.80193000  1
  Mo  Mo4  1  3.56205000  7.37305000  -0.04400020  1
  Mo  Mo5  1  5.54240000  1.76504000  3.66368000  1
  Mo  Mo6  1  5.28814000  7.43543000  1.90006000  1
  Mo  Mo7  1  3.46603000  1.78135000  1.63742000  1
  Mo  Mo8  1  -0.06077600  3.55697000  3.56782000  1
  Mo  Mo9  1  1.87220000  5.27464000  3.80837000  1
  Mo  Mo10  1  1.86234000  3.63804000  1.75098000  1
  Mo  Mo11  1  0.02418900  5.48396000  1.91987000  1
  Mo  Mo12  1  3.86225000  3.77968000  -0.14307100  1
  Mo  Mo13  1  5.51160000  5.40724000  0.08431820  1
  Mo  Mo14  1  5.46292000  3.63424000  1.87457000  1
  Mo  Mo15  1  3.64876000  5.44250000  1.83204000  1
