# generated using pymatgen
data_Mo
_symmetry_space_group_name_H-M   'P 1'
_cell_length_a   7.29789726
_cell_length_b   7.29789726
_cell_length_c   3.64894867
_cell_angle_alpha   90.00000000
_cell_angle_beta   90.00000000
_cell_angle_gamma   90.00000000
_symmetry_Int_Tables_number   1
_chemical_formula_structural   Mo
_chemical_formula_sum   Mo16
_cell_volume   194.34046797
_cell_formula_units_Z   16
loop_
 _symmetry_equiv_pos_site_id
 _symmetry_equiv_pos_as_xyz
  1  'x, y, z'
loop_
 _atom_site_type_symbol
 _atom_site_label
 _atom_site_symmetry_multiplicity
 _atom_site_fract_x
 _atom_site_fract_y
 _atom_site_fract_z
 _atom_site_occupancy
  Mo  Mo0  1  7.33407000  -0.02659330  0.06711460  1
  Mo  Mo1  1  1.80495000  1.69221000  0.04085150  1
  Mo  Mo2  1  1.90523000  7.39078000  1.85242000  1
  Mo  Mo3  1  7.28116000  1.65201000  1.87794000  1
  Mo  Mo4  1  3.59463000  7.31443000  3.57669000  1
  Mo  Mo5  1  5.67463000  1.86244000  0.01184220  1
  Mo  Mo6  1  5.42438000  7.31447000  1.80332000  1
  Mo  Mo7  1  3.62731000  1.86235000  1.80043000  1
  Mo  Mo8  1  7.36544000  3.69743000  3.52334000  1
  Mo  Mo9  1  1.84735000  5.55854000  -0.05873390  1
  Mo  Mo10  1  1.79597000  3.68443000  1.82425000  1
  Mo  Mo11  1  7.16052000  5.42961000  1.80455000  1
  Mo  Mo12  1  3.54039000  3.66160000  0.00549100  1
  Mo  Mo13  1  5.26420000  5.38517000  3.61997000  1
  Mo  Mo14  1  5.54603000  3.48711000  1.89095000  1
  Mo  Mo15  1  3.65353000  5.55591000  1.82263000  1
