# generated using pymatgen
data_Mo
_symmetry_space_group_name_H-M   'P 1'
_cell_length_a   7.31012717
_cell_length_b   7.31012717
_cell_length_c   3.65506363
_cell_angle_alpha   90.00000000
_cell_angle_beta   90.00000000
_cell_angle_gamma   90.00000000
_symmetry_Int_Tables_number   1
_chemical_formula_structural   Mo
_chemical_formula_sum   Mo16
_cell_volume   195.31914108
_cell_formula_units_Z   16
loop_
 _symmetry_equiv_pos_site_id
 _symmetry_equiv_pos_as_xyz
  1  'x, y, z'
loop_
 _atom_site_type_symbol
 _atom_site_label
 _atom_site_symmetry_multiplicity
 _atom_site_fract_x
 _atom_site_fract_y
 _atom_site_fract_z
 _atom_site_occupancy
  Mo  Mo0  1  7.31200000  -0.15469600  3.69938000  1
  Mo  Mo1  1  1.95703000  1.74018000  3.72277000  1
  Mo  Mo2  1  1.62511000  -0.00747161  1.80951000  1
  Mo  Mo3  1  7.38271000  1.69774000  1.79669000  1
  Mo  Mo4  1  3.59731000  7.26916000  -0.09265880  1
  Mo  Mo5  1  5.55780000  1.91409000  3.69194000  1
  Mo  Mo6  1  5.63980000  7.45421000  1.88815000  1
  Mo  Mo7  1  3.67017000  1.82119000  1.80836000  1
  Mo  Mo8  1  -0.07854460  3.79123000  3.59081000  1
  Mo  Mo9  1  1.80824000  5.43090000  3.60692000  1
  Mo  Mo10  1  1.90852000  3.55291000  1.79858000  1
  Mo  Mo11  1  -0.06334350  5.45967000  1.80275000  1
  Mo  Mo12  1  3.69671000  3.72280000  -0.11732700  1
  Mo  Mo13  1  5.35289000  5.56303000  -0.02822890  1
  Mo  Mo14  1  5.46524000  3.38059000  1.86444000  1
  Mo  Mo15  1  3.39235000  5.58845000  1.92498000  1
