# generated using pymatgen
data_Mo
_symmetry_space_group_name_H-M   'P 1'
_cell_length_a   7.31012717
_cell_length_b   7.31012717
_cell_length_c   3.65506363
_cell_angle_alpha   90.00000000
_cell_angle_beta   90.00000000
_cell_angle_gamma   90.00000000
_symmetry_Int_Tables_number   1
_chemical_formula_structural   Mo
_chemical_formula_sum   Mo16
_cell_volume   195.31914108
_cell_formula_units_Z   16
loop_
 _symmetry_equiv_pos_site_id
 _symmetry_equiv_pos_as_xyz
  1  'x, y, z'
loop_
 _atom_site_type_symbol
 _atom_site_label
 _atom_site_symmetry_multiplicity
 _atom_site_fract_x
 _atom_site_fract_y
 _atom_site_fract_z
 _atom_site_occupancy
  Mo  Mo0  1  7.47749000  -0.11783700  3.74353000  1
  Mo  Mo1  1  1.83084000  1.85963000  3.57287000  1
  Mo  Mo2  1  1.97474000  -0.04519600  1.86006000  1
  Mo  Mo3  1  7.29592000  1.93019000  1.89290000  1
  Mo  Mo4  1  3.58324000  7.29685000  0.08547770  1
  Mo  Mo5  1  5.46757000  1.87453000  3.63066000  1
  Mo  Mo6  1  5.46018000  7.36810000  1.79891000  1
  Mo  Mo7  1  3.65138000  1.92845000  1.80921000  1
  Mo  Mo8  1  -0.01371800  3.65925000  3.63820000  1
  Mo  Mo9  1  1.78816000  5.46162000  3.60359000  1
  Mo  Mo10  1  1.76225000  3.49851000  1.71441000  1
  Mo  Mo11  1  -0.18156000  5.41427000  1.93987000  1
  Mo  Mo12  1  3.58820000  3.63362000  -0.03799330  1
  Mo  Mo13  1  5.39328000  5.50673000  -0.04883620  1
  Mo  Mo14  1  5.55368000  3.75481000  1.83011000  1
  Mo  Mo15  1  3.59236000  5.20048000  1.73411000  1
