# generated using pymatgen
data_Mo
_symmetry_space_group_name_H-M   'P 1'
_cell_length_a   7.31012717
_cell_length_b   7.31012717
_cell_length_c   3.65506363
_cell_angle_alpha   90.00000000
_cell_angle_beta   90.00000000
_cell_angle_gamma   90.00000000
_symmetry_Int_Tables_number   1
_chemical_formula_structural   Mo
_chemical_formula_sum   Mo16
_cell_volume   195.31914108
_cell_formula_units_Z   16
loop_
 _symmetry_equiv_pos_site_id
 _symmetry_equiv_pos_as_xyz
  1  'x, y, z'
loop_
 _atom_site_type_symbol
 _atom_site_label
 _atom_site_symmetry_multiplicity
 _atom_site_fract_x
 _atom_site_fract_y
 _atom_site_fract_z
 _atom_site_occupancy
  Mo  Mo0  1  7.38184000  -0.14041200  3.65937000  1
  Mo  Mo1  1  1.74633000  1.89764000  3.67360000  1
  Mo  Mo2  1  1.72370000  -0.00809725  1.81397000  1
  Mo  Mo3  1  7.31561000  1.62365000  1.79352000  1
  Mo  Mo4  1  3.69584000  7.30518000  -0.01884660  1
  Mo  Mo5  1  5.56443000  1.87180000  3.60467000  1
  Mo  Mo6  1  5.57968000  7.37241000  2.00582000  1
  Mo  Mo7  1  3.52954000  1.70741000  1.74797000  1
  Mo  Mo8  1  -0.14710400  3.78018000  3.59843000  1
  Mo  Mo9  1  1.98509000  5.58129000  3.71620000  1
  Mo  Mo10  1  1.83251000  3.64920000  1.74577000  1
  Mo  Mo11  1  0.00134873  5.51862000  2.05872000  1
  Mo  Mo12  1  3.70502000  3.54682000  -0.22947500  1
  Mo  Mo13  1  5.31070000  5.52280000  0.04055920  1
  Mo  Mo14  1  5.42070000  3.53305000  1.75328000  1
  Mo  Mo15  1  3.57876000  5.46247000  1.80350000  1
