# generated using pymatgen
data_Mo
_symmetry_space_group_name_H-M   'P 1'
_cell_length_a   7.31012717
_cell_length_b   7.31012717
_cell_length_c   3.65506363
_cell_angle_alpha   90.00000000
_cell_angle_beta   90.00000000
_cell_angle_gamma   90.00000000
_symmetry_Int_Tables_number   1
_chemical_formula_structural   Mo
_chemical_formula_sum   Mo16
_cell_volume   195.31914108
_cell_formula_units_Z   16
loop_
 _symmetry_equiv_pos_site_id
 _symmetry_equiv_pos_as_xyz
  1  'x, y, z'
loop_
 _atom_site_type_symbol
 _atom_site_label
 _atom_site_symmetry_multiplicity
 _atom_site_fract_x
 _atom_site_fract_y
 _atom_site_fract_z
 _atom_site_occupancy
  Mo  Mo0  1  7.21956000  -0.08499740  3.54352000  1
  Mo  Mo1  1  1.85522000  2.01933000  3.70810000  1
  Mo  Mo2  1  1.71642000  -0.03155770  1.72731000  1
  Mo  Mo3  1  7.30385000  2.01059000  1.80602000  1
  Mo  Mo4  1  3.65450000  7.43640000  -0.03448040  1
  Mo  Mo5  1  5.66544000  1.62180000  3.64514000  1
  Mo  Mo6  1  5.53777000  7.30538000  1.77020000  1
  Mo  Mo7  1  3.69865000  1.73162000  1.94371000  1
  Mo  Mo8  1  -0.20876600  3.73316000  3.65743000  1
  Mo  Mo9  1  1.85250000  5.45116000  3.71768000  1
  Mo  Mo10  1  2.09728000  3.52352000  1.95122000  1
  Mo  Mo11  1  -0.01960980  5.23761000  1.68546000  1
  Mo  Mo12  1  3.70777000  3.69693000  0.01714720  1
  Mo  Mo13  1  5.33064000  5.50152000  -0.01399280  1
  Mo  Mo14  1  5.30833000  3.54294000  1.80511000  1
  Mo  Mo15  1  3.50446000  5.52860000  1.83750000  1
