# generated using pymatgen
data_Mo
_symmetry_space_group_name_H-M   'P 1'
_cell_length_a   7.31012717
_cell_length_b   7.31012717
_cell_length_c   3.65506363
_cell_angle_alpha   90.00000000
_cell_angle_beta   90.00000000
_cell_angle_gamma   90.00000000
_symmetry_Int_Tables_number   1
_chemical_formula_structural   Mo
_chemical_formula_sum   Mo16
_cell_volume   195.31914108
_cell_formula_units_Z   16
loop_
 _symmetry_equiv_pos_site_id
 _symmetry_equiv_pos_as_xyz
  1  'x, y, z'
loop_
 _atom_site_type_symbol
 _atom_site_label
 _atom_site_symmetry_multiplicity
 _atom_site_fract_x
 _atom_site_fract_y
 _atom_site_fract_z
 _atom_site_occupancy
  Mo  Mo0  1  7.40648000  0.02626830  3.46133000  1
  Mo  Mo1  1  1.76042000  1.94057000  3.82880000  1
  Mo  Mo2  1  1.91205000  -0.00285369  1.94395000  1
  Mo  Mo3  1  7.26733000  1.84111000  1.78064000  1
  Mo  Mo4  1  3.68250000  7.34480000  -0.07121220  1
  Mo  Mo5  1  5.66153000  1.75813000  3.62508000  1
  Mo  Mo6  1  5.53531000  7.30688000  1.62492000  1
  Mo  Mo7  1  3.69761000  1.68613000  1.89789000  1
  Mo  Mo8  1  -0.04344990  3.68156000  3.72226000  1
  Mo  Mo9  1  1.75798000  5.32388000  3.68824000  1
  Mo  Mo10  1  1.92881000  3.51423000  2.00127000  1
  Mo  Mo11  1  -0.23485300  5.37639000  1.72064000  1
  Mo  Mo12  1  3.60186000  3.69573000  0.12886100  1
  Mo  Mo13  1  5.34569000  5.56327000  -0.17474900  1
  Mo  Mo14  1  5.37495000  3.65827000  1.79187000  1
  Mo  Mo15  1  3.56978000  5.50964000  1.79726000  1
