# generated using pymatgen
data_Mo
_symmetry_space_group_name_H-M   'P 1'
_cell_length_a   7.31012717
_cell_length_b   7.31012717
_cell_length_c   3.65506363
_cell_angle_alpha   90.00000000
_cell_angle_beta   90.00000000
_cell_angle_gamma   90.00000000
_symmetry_Int_Tables_number   1
_chemical_formula_structural   Mo
_chemical_formula_sum   Mo16
_cell_volume   195.31914108
_cell_formula_units_Z   16
loop_
 _symmetry_equiv_pos_site_id
 _symmetry_equiv_pos_as_xyz
  1  'x, y, z'
loop_
 _atom_site_type_symbol
 _atom_site_label
 _atom_site_symmetry_multiplicity
 _atom_site_fract_x
 _atom_site_fract_y
 _atom_site_fract_z
 _atom_site_occupancy
  Mo  Mo0  1  7.33684000  -0.11288100  3.59221000  1
  Mo  Mo1  1  1.76561000  1.88151000  3.73714000  1
  Mo  Mo2  1  1.73223000  0.06945050  1.78822000  1
  Mo  Mo3  1  7.11173000  1.88257000  1.80487000  1
  Mo  Mo4  1  3.70100000  7.15402000  -0.08552210  1
  Mo  Mo5  1  5.36612000  1.82631000  3.64579000  1
  Mo  Mo6  1  5.46198000  7.30429000  1.78695000  1
  Mo  Mo7  1  3.66651000  1.79731000  1.80317000  1
  Mo  Mo8  1  -0.00542899  3.73672000  3.45496000  1
  Mo  Mo9  1  1.86286000  5.30387000  3.70418000  1
  Mo  Mo10  1  1.92672000  3.53418000  1.98877000  1
  Mo  Mo11  1  0.09244040  5.39118000  1.89331000  1
  Mo  Mo12  1  3.65329000  3.83757000  0.02321730  1
  Mo  Mo13  1  5.49781000  5.37893000  0.03053650  1
  Mo  Mo14  1  5.38459000  3.64698000  1.83197000  1
  Mo  Mo15  1  3.66969000  5.59200000  1.76728000  1
