# generated using pymatgen
data_Mo
_symmetry_space_group_name_H-M   'P 1'
_cell_length_a   7.31012717
_cell_length_b   7.31012717
_cell_length_c   3.65506363
_cell_angle_alpha   90.00000000
_cell_angle_beta   90.00000000
_cell_angle_gamma   90.00000000
_symmetry_Int_Tables_number   1
_chemical_formula_structural   Mo
_chemical_formula_sum   Mo16
_cell_volume   195.31914108
_cell_formula_units_Z   16
loop_
 _symmetry_equiv_pos_site_id
 _symmetry_equiv_pos_as_xyz
  1  'x, y, z'
loop_
 _atom_site_type_symbol
 _atom_site_label
 _atom_site_symmetry_multiplicity
 _atom_site_fract_x
 _atom_site_fract_y
 _atom_site_fract_z
 _atom_site_occupancy
  Mo  Mo0  1  7.25285000  -0.01642520  3.58205000  1
  Mo  Mo1  1  1.66290000  1.68637000  3.70184000  1
  Mo  Mo2  1  1.87078000  -0.09260380  1.91800000  1
  Mo  Mo3  1  7.33919000  1.66664000  1.86958000  1
  Mo  Mo4  1  3.74224000  7.29197000  0.02418960  1
  Mo  Mo5  1  5.50128000  1.75593000  3.81452000  1
  Mo  Mo6  1  5.46716000  7.23644000  1.92454000  1
  Mo  Mo7  1  3.69267000  1.86153000  1.87858000  1
  Mo  Mo8  1  -0.03007190  3.66271000  3.45853000  1
  Mo  Mo9  1  1.74819000  5.70979000  3.55499000  1
  Mo  Mo10  1  1.69735000  3.50185000  1.69539000  1
  Mo  Mo11  1  0.07345710  5.49205000  1.66827000  1
  Mo  Mo12  1  3.53827000  3.70809000  0.01123500  1
  Mo  Mo13  1  5.37330000  5.57181000  0.01972680  1
  Mo  Mo14  1  5.61063000  3.73279000  1.76123000  1
  Mo  Mo15  1  3.68380000  5.45505000  1.88441000  1
