# generated using pymatgen
data_Mo
_symmetry_space_group_name_H-M   'P 1'
_cell_length_a   7.31012717
_cell_length_b   7.31012717
_cell_length_c   3.65506363
_cell_angle_alpha   90.00000000
_cell_angle_beta   90.00000000
_cell_angle_gamma   90.00000000
_symmetry_Int_Tables_number   1
_chemical_formula_structural   Mo
_chemical_formula_sum   Mo16
_cell_volume   195.31914108
_cell_formula_units_Z   16
loop_
 _symmetry_equiv_pos_site_id
 _symmetry_equiv_pos_as_xyz
  1  'x, y, z'
loop_
 _atom_site_type_symbol
 _atom_site_label
 _atom_site_symmetry_multiplicity
 _atom_site_fract_x
 _atom_site_fract_y
 _atom_site_fract_z
 _atom_site_occupancy
  Mo  Mo0  1  7.43173000  0.08913160  3.65251000  1
  Mo  Mo1  1  1.76419000  2.00829000  3.74631000  1
  Mo  Mo2  1  1.90765000  0.07519150  1.87234000  1
  Mo  Mo3  1  7.38133000  1.70414000  1.73645000  1
  Mo  Mo4  1  3.63421000  7.24253000  -0.00712360  1
  Mo  Mo5  1  5.42246000  1.92379000  3.60486000  1
  Mo  Mo6  1  5.38635000  7.20582000  1.97332000  1
  Mo  Mo7  1  3.52107000  1.91824000  1.79054000  1
  Mo  Mo8  1  -0.15895200  3.73683000  3.64626000  1
  Mo  Mo9  1  1.86992000  5.29291000  3.55113000  1
  Mo  Mo10  1  1.68700000  3.70958000  1.69225000  1
  Mo  Mo11  1  0.07195040  5.42192000  1.81549000  1
  Mo  Mo12  1  3.71234000  3.48852000  -0.11093100  1
  Mo  Mo13  1  5.47016000  5.32247000  0.16821600  1
  Mo  Mo14  1  5.41083000  3.59083000  1.73715000  1
  Mo  Mo15  1  3.71175000  5.49379000  1.89830000  1
