# generated using pymatgen
data_Mo
_symmetry_space_group_name_H-M   'P 1'
_cell_length_a   7.31012717
_cell_length_b   7.31012717
_cell_length_c   3.65506363
_cell_angle_alpha   90.00000000
_cell_angle_beta   90.00000000
_cell_angle_gamma   90.00000000
_symmetry_Int_Tables_number   1
_chemical_formula_structural   Mo
_chemical_formula_sum   Mo16
_cell_volume   195.31914108
_cell_formula_units_Z   16
loop_
 _symmetry_equiv_pos_site_id
 _symmetry_equiv_pos_as_xyz
  1  'x, y, z'
loop_
 _atom_site_type_symbol
 _atom_site_label
 _atom_site_symmetry_multiplicity
 _atom_site_fract_x
 _atom_site_fract_y
 _atom_site_fract_z
 _atom_site_occupancy
  Mo  Mo0  1  7.27321000  -0.24025200  3.47486000  1
  Mo  Mo1  1  1.87628000  1.70185000  3.48260000  1
  Mo  Mo2  1  1.83185000  0.05870300  1.73551000  1
  Mo  Mo3  1  7.21213000  1.84299000  1.83391000  1
  Mo  Mo4  1  3.50986000  7.36982000  -0.00312104  1
  Mo  Mo5  1  5.44249000  1.84879000  3.64583000  1
  Mo  Mo6  1  5.47931000  7.40689000  1.79152000  1
  Mo  Mo7  1  3.67123000  1.91330000  1.85494000  1
  Mo  Mo8  1  0.13091300  3.64346000  3.82269000  1
  Mo  Mo9  1  1.87333000  5.46931000  3.64761000  1
  Mo  Mo10  1  1.98494000  3.74703000  1.85915000  1
  Mo  Mo11  1  -0.13892900  5.41846000  1.92471000  1
  Mo  Mo12  1  3.61633000  3.57328000  -0.04960110  1
  Mo  Mo13  1  5.53756000  5.37345000  0.04981880  1
  Mo  Mo14  1  5.30819000  3.63416000  1.90506000  1
  Mo  Mo15  1  3.61530000  5.46278000  1.79157000  1
