# generated using pymatgen
data_Mo
_symmetry_space_group_name_H-M   'P 1'
_cell_length_a   7.29789726
_cell_length_b   7.29789726
_cell_length_c   3.64894867
_cell_angle_alpha   90.00000000
_cell_angle_beta   90.00000000
_cell_angle_gamma   90.00000000
_symmetry_Int_Tables_number   1
_chemical_formula_structural   Mo
_chemical_formula_sum   Mo16
_cell_volume   194.34046797
_cell_formula_units_Z   16
loop_
 _symmetry_equiv_pos_site_id
 _symmetry_equiv_pos_as_xyz
  1  'x, y, z'
loop_
 _atom_site_type_symbol
 _atom_site_label
 _atom_site_symmetry_multiplicity
 _atom_site_fract_x
 _atom_site_fract_y
 _atom_site_fract_z
 _atom_site_occupancy
  Mo  Mo0  1  7.26446000  -0.04271680  -0.00370204  1
  Mo  Mo1  1  1.86484000  1.75767000  0.11935200  1
  Mo  Mo2  1  1.91497000  7.37054000  1.78826000  1
  Mo  Mo3  1  7.22331000  1.73537000  1.75687000  1
  Mo  Mo4  1  3.62752000  7.33916000  3.53497000  1
  Mo  Mo5  1  5.38385000  1.78345000  -0.05183350  1
  Mo  Mo6  1  5.39140000  7.10368000  1.75630000  1
  Mo  Mo7  1  3.70245000  1.91708000  1.88410000  1
  Mo  Mo8  1  7.26866000  3.43160000  3.80105000  1
  Mo  Mo9  1  1.73283000  5.50769000  -0.04087340  1
  Mo  Mo10  1  1.95348000  3.44751000  1.93780000  1
  Mo  Mo11  1  7.36597000  5.49989000  1.73171000  1
  Mo  Mo12  1  3.61115000  3.72085000  0.02017650  1
  Mo  Mo13  1  5.49228000  5.52730000  3.69124000  1
  Mo  Mo14  1  5.44369000  3.81277000  1.68266000  1
  Mo  Mo15  1  3.57893000  5.61008000  1.85498000  1
