# generated using pymatgen
data_Mo
_symmetry_space_group_name_H-M   'P 1'
_cell_length_a   7.31012717
_cell_length_b   7.31012717
_cell_length_c   3.65506363
_cell_angle_alpha   90.00000000
_cell_angle_beta   90.00000000
_cell_angle_gamma   90.00000000
_symmetry_Int_Tables_number   1
_chemical_formula_structural   Mo
_chemical_formula_sum   Mo16
_cell_volume   195.31914108
_cell_formula_units_Z   16
loop_
 _symmetry_equiv_pos_site_id
 _symmetry_equiv_pos_as_xyz
  1  'x, y, z'
loop_
 _atom_site_type_symbol
 _atom_site_label
 _atom_site_symmetry_multiplicity
 _atom_site_fract_x
 _atom_site_fract_y
 _atom_site_fract_z
 _atom_site_occupancy
  Mo  Mo0  1  7.42014000  0.06856620  3.63405000  1
  Mo  Mo1  1  1.90965000  1.93671000  3.67614000  1
  Mo  Mo2  1  1.59054000  -0.03220890  1.78623000  1
  Mo  Mo3  1  7.13610000  1.89164000  1.81290000  1
  Mo  Mo4  1  3.56480000  7.43996000  0.02123870  1
  Mo  Mo5  1  5.50090000  1.84128000  3.48359000  1
  Mo  Mo6  1  5.42671000  7.15060000  1.69869000  1
  Mo  Mo7  1  3.69217000  1.69698000  1.82974000  1
  Mo  Mo8  1  0.12532800  3.63079000  3.63373000  1
  Mo  Mo9  1  1.86136000  5.31942000  3.71240000  1
  Mo  Mo10  1  2.01369000  3.59396000  2.03274000  1
  Mo  Mo11  1  -0.09754610  5.25583000  1.77747000  1
  Mo  Mo12  1  3.67371000  3.62915000  0.11273100  1
  Mo  Mo13  1  5.32776000  5.65395000  -0.14834100  1
  Mo  Mo14  1  5.41850000  3.55409000  1.86737000  1
  Mo  Mo15  1  3.66020000  5.59328000  1.83637000  1
