# generated using pymatgen
data_Mo
_symmetry_space_group_name_H-M   'P 1'
_cell_length_a   7.31012717
_cell_length_b   7.31012717
_cell_length_c   3.65506363
_cell_angle_alpha   90.00000000
_cell_angle_beta   90.00000000
_cell_angle_gamma   90.00000000
_symmetry_Int_Tables_number   1
_chemical_formula_structural   Mo
_chemical_formula_sum   Mo16
_cell_volume   195.31914108
_cell_formula_units_Z   16
loop_
 _symmetry_equiv_pos_site_id
 _symmetry_equiv_pos_as_xyz
  1  'x, y, z'
loop_
 _atom_site_type_symbol
 _atom_site_label
 _atom_site_symmetry_multiplicity
 _atom_site_fract_x
 _atom_site_fract_y
 _atom_site_fract_z
 _atom_site_occupancy
  Mo  Mo0  1  7.26549000  -0.00594751  3.64340000  1
  Mo  Mo1  1  1.81418000  1.80458000  3.63237000  1
  Mo  Mo2  1  1.91093000  0.04538300  1.72002000  1
  Mo  Mo3  1  7.35782000  1.73819000  1.80478000  1
  Mo  Mo4  1  3.77118000  7.34385000  -0.03029710  1
  Mo  Mo5  1  5.46740000  1.81626000  3.69824000  1
  Mo  Mo6  1  5.55258000  7.05944000  1.80591000  1
  Mo  Mo7  1  3.58681000  1.72965000  1.92590000  1
  Mo  Mo8  1  -0.04508730  3.52707000  3.70010000  1
  Mo  Mo9  1  1.95737000  5.49460000  3.58881000  1
  Mo  Mo10  1  1.59659000  3.71969000  1.94666000  1
  Mo  Mo11  1  0.00308898  5.52368000  1.78527000  1
  Mo  Mo12  1  3.51638000  3.54264000  -0.06055560  1
  Mo  Mo13  1  5.44138000  5.45652000  -0.09193420  1
  Mo  Mo14  1  5.52551000  3.80180000  1.81037000  1
  Mo  Mo15  1  3.50238000  5.62658000  1.88801000  1
