# generated using pymatgen
data_Mo
_symmetry_space_group_name_H-M   'P 1'
_cell_length_a   7.31012717
_cell_length_b   7.31012717
_cell_length_c   3.65506363
_cell_angle_alpha   90.00000000
_cell_angle_beta   90.00000000
_cell_angle_gamma   90.00000000
_symmetry_Int_Tables_number   1
_chemical_formula_structural   Mo
_chemical_formula_sum   Mo16
_cell_volume   195.31914108
_cell_formula_units_Z   16
loop_
 _symmetry_equiv_pos_site_id
 _symmetry_equiv_pos_as_xyz
  1  'x, y, z'
loop_
 _atom_site_type_symbol
 _atom_site_label
 _atom_site_symmetry_multiplicity
 _atom_site_fract_x
 _atom_site_fract_y
 _atom_site_fract_z
 _atom_site_occupancy
  Mo  Mo0  1  7.29221000  0.06395500  3.53231000  1
  Mo  Mo1  1  1.83410000  1.83920000  3.68706000  1
  Mo  Mo2  1  1.85711000  -0.02694390  1.76807000  1
  Mo  Mo3  1  7.20260000  1.96356000  1.91302000  1
  Mo  Mo4  1  3.65281000  7.34667000  0.03661270  1
  Mo  Mo5  1  5.51625000  1.76102000  3.64179000  1
  Mo  Mo6  1  5.46144000  7.40276000  1.84401000  1
  Mo  Mo7  1  3.65413000  1.83318000  1.70532000  1
  Mo  Mo8  1  0.09586790  3.54923000  3.67386000  1
  Mo  Mo9  1  1.78378000  5.55462000  3.53382000  1
  Mo  Mo10  1  1.87967000  3.69301000  1.77965000  1
  Mo  Mo11  1  -0.07443610  5.42031000  1.81011000  1
  Mo  Mo12  1  3.64930000  3.48986000  -0.07268660  1
  Mo  Mo13  1  5.58735000  5.35175000  0.04935190  1
  Mo  Mo14  1  5.29635000  3.53499000  1.96529000  1
  Mo  Mo15  1  3.53546000  5.44682000  1.89948000  1
