# generated using pymatgen
data_Mo
_symmetry_space_group_name_H-M   'P 1'
_cell_length_a   7.31012717
_cell_length_b   7.31012717
_cell_length_c   3.65506363
_cell_angle_alpha   90.00000000
_cell_angle_beta   90.00000000
_cell_angle_gamma   90.00000000
_symmetry_Int_Tables_number   1
_chemical_formula_structural   Mo
_chemical_formula_sum   Mo16
_cell_volume   195.31914108
_cell_formula_units_Z   16
loop_
 _symmetry_equiv_pos_site_id
 _symmetry_equiv_pos_as_xyz
  1  'x, y, z'
loop_
 _atom_site_type_symbol
 _atom_site_label
 _atom_site_symmetry_multiplicity
 _atom_site_fract_x
 _atom_site_fract_y
 _atom_site_fract_z
 _atom_site_occupancy
  Mo  Mo0  1  7.35625000  -0.01045240  3.74925000  1
  Mo  Mo1  1  1.77508000  1.99752000  3.60814000  1
  Mo  Mo2  1  1.84736000  -0.11650800  1.85185000  1
  Mo  Mo3  1  7.29910000  1.75080000  1.71320000  1
  Mo  Mo4  1  3.61307000  7.45166000  -0.07808680  1
  Mo  Mo5  1  5.38820000  1.78185000  3.64272000  1
  Mo  Mo6  1  5.27405000  7.33129000  1.78452000  1
  Mo  Mo7  1  3.53840000  1.98140000  1.76296000  1
  Mo  Mo8  1  -0.07366520  3.56547000  3.60993000  1
  Mo  Mo9  1  1.89571000  5.32307000  3.80531000  1
  Mo  Mo10  1  1.74246000  3.67842000  1.89115000  1
  Mo  Mo11  1  0.10307500  5.46152000  2.02084000  1
  Mo  Mo12  1  3.83652000  3.57406000  -0.06569620  1
  Mo  Mo13  1  5.50963000  5.35671000  -0.04617580  1
  Mo  Mo14  1  5.54683000  3.63984000  1.70096000  1
  Mo  Mo15  1  3.57192000  5.45736000  1.81620000  1
