# generated using pymatgen
data_Mo
_symmetry_space_group_name_H-M   'P 1'
_cell_length_a   7.31012717
_cell_length_b   7.31012717
_cell_length_c   3.65506363
_cell_angle_alpha   90.00000000
_cell_angle_beta   90.00000000
_cell_angle_gamma   90.00000000
_symmetry_Int_Tables_number   1
_chemical_formula_structural   Mo
_chemical_formula_sum   Mo16
_cell_volume   195.31914108
_cell_formula_units_Z   16
loop_
 _symmetry_equiv_pos_site_id
 _symmetry_equiv_pos_as_xyz
  1  'x, y, z'
loop_
 _atom_site_type_symbol
 _atom_site_label
 _atom_site_symmetry_multiplicity
 _atom_site_fract_x
 _atom_site_fract_y
 _atom_site_fract_z
 _atom_site_occupancy
  Mo  Mo0  1  7.35209000  0.06602790  3.44140000  1
  Mo  Mo1  1  1.72674000  1.80959000  3.74178000  1
  Mo  Mo2  1  1.86584000  -0.17880600  1.85824000  1
  Mo  Mo3  1  7.35628000  1.77304000  1.77216000  1
  Mo  Mo4  1  3.64832000  7.34932000  -0.08095880  1
  Mo  Mo5  1  5.48626000  1.68526000  3.74171000  1
  Mo  Mo6  1  5.39719000  7.31282000  1.75868000  1
  Mo  Mo7  1  3.45506000  1.90732000  1.78901000  1
  Mo  Mo8  1  0.01104330  3.61270000  3.58227000  1
  Mo  Mo9  1  1.81606000  5.54748000  3.58546000  1
  Mo  Mo10  1  1.88665000  3.71713000  1.89282000  1
  Mo  Mo11  1  -0.05867780  5.41127000  1.75840000  1
  Mo  Mo12  1  3.67943000  3.48456000  0.02957780  1
  Mo  Mo13  1  5.41746000  5.63658000  0.11819400  1
  Mo  Mo14  1  5.48605000  3.51435000  1.88624000  1
  Mo  Mo15  1  3.69821000  5.57536000  1.89208000  1
