# generated using pymatgen
data_Mo
_symmetry_space_group_name_H-M   'P 1'
_cell_length_a   7.31012717
_cell_length_b   7.31012717
_cell_length_c   3.65506363
_cell_angle_alpha   90.00000000
_cell_angle_beta   90.00000000
_cell_angle_gamma   90.00000000
_symmetry_Int_Tables_number   1
_chemical_formula_structural   Mo
_chemical_formula_sum   Mo16
_cell_volume   195.31914108
_cell_formula_units_Z   16
loop_
 _symmetry_equiv_pos_site_id
 _symmetry_equiv_pos_as_xyz
  1  'x, y, z'
loop_
 _atom_site_type_symbol
 _atom_site_label
 _atom_site_symmetry_multiplicity
 _atom_site_fract_x
 _atom_site_fract_y
 _atom_site_fract_z
 _atom_site_occupancy
  Mo  Mo0  1  7.25591000  0.01003230  3.67430000  1
  Mo  Mo1  1  1.80880000  1.77336000  3.56592000  1
  Mo  Mo2  1  1.89646000  -0.17724300  1.97867000  1
  Mo  Mo3  1  7.19373000  1.91670000  1.72035000  1
  Mo  Mo4  1  3.66986000  7.44276000  -0.03231720  1
  Mo  Mo5  1  5.56212000  1.76416000  3.56951000  1
  Mo  Mo6  1  5.55785000  7.22076000  1.88097000  1
  Mo  Mo7  1  3.71032000  1.87585000  1.96067000  1
  Mo  Mo8  1  -0.11212600  3.53854000  3.57419000  1
  Mo  Mo9  1  1.85888000  5.34586000  3.66722000  1
  Mo  Mo10  1  1.84350000  3.67180000  1.80617000  1
  Mo  Mo11  1  0.04817820  5.27854000  1.86863000  1
  Mo  Mo12  1  3.54194000  3.67465000  0.00099441  1
  Mo  Mo13  1  5.48462000  5.49042000  -0.01137670  1
  Mo  Mo14  1  5.35583000  3.89883000  1.69771000  1
  Mo  Mo15  1  3.54813000  5.49898000  1.84544000  1
