# generated using pymatgen
data_Mo
_symmetry_space_group_name_H-M   'P 1'
_cell_length_a   7.31012717
_cell_length_b   7.31012717
_cell_length_c   3.65506363
_cell_angle_alpha   90.00000000
_cell_angle_beta   90.00000000
_cell_angle_gamma   90.00000000
_symmetry_Int_Tables_number   1
_chemical_formula_structural   Mo
_chemical_formula_sum   Mo16
_cell_volume   195.31914108
_cell_formula_units_Z   16
loop_
 _symmetry_equiv_pos_site_id
 _symmetry_equiv_pos_as_xyz
  1  'x, y, z'
loop_
 _atom_site_type_symbol
 _atom_site_label
 _atom_site_symmetry_multiplicity
 _atom_site_fract_x
 _atom_site_fract_y
 _atom_site_fract_z
 _atom_site_occupancy
  Mo  Mo0  1  7.28563000  -0.03919850  3.62673000  1
  Mo  Mo1  1  1.68858000  1.84464000  3.46322000  1
  Mo  Mo2  1  1.80371000  -0.22371600  1.89421000  1
  Mo  Mo3  1  7.40708000  1.92931000  1.73463000  1
  Mo  Mo4  1  3.55641000  7.30723000  0.04372910  1
  Mo  Mo5  1  5.42633000  1.70371000  3.49939000  1
  Mo  Mo6  1  5.56709000  7.28657000  1.78028000  1
  Mo  Mo7  1  3.48613000  1.80477000  1.79509000  1
  Mo  Mo8  1  -0.15553900  3.83688000  3.62005000  1
  Mo  Mo9  1  1.90148000  5.46387000  3.75223000  1
  Mo  Mo10  1  1.85503000  3.78658000  1.92097000  1
  Mo  Mo11  1  0.04209750  5.36713000  1.73240000  1
  Mo  Mo12  1  3.80890000  3.52224000  0.01741850  1
  Mo  Mo13  1  5.39983000  5.45281000  -0.00828684  1
  Mo  Mo14  1  5.41192000  3.69032000  1.82583000  1
  Mo  Mo15  1  3.73931000  5.49085000  2.06915000  1
