# generated using pymatgen
data_Mo
_symmetry_space_group_name_H-M   'P 1'
_cell_length_a   7.29789726
_cell_length_b   7.29789726
_cell_length_c   3.64894867
_cell_angle_alpha   90.00000000
_cell_angle_beta   90.00000000
_cell_angle_gamma   90.00000000
_symmetry_Int_Tables_number   1
_chemical_formula_structural   Mo
_chemical_formula_sum   Mo16
_cell_volume   194.34046797
_cell_formula_units_Z   16
loop_
 _symmetry_equiv_pos_site_id
 _symmetry_equiv_pos_as_xyz
  1  'x, y, z'
loop_
 _atom_site_type_symbol
 _atom_site_label
 _atom_site_symmetry_multiplicity
 _atom_site_fract_x
 _atom_site_fract_y
 _atom_site_fract_z
 _atom_site_occupancy
  Mo  Mo0  1  7.13132000  0.16597700  0.04077630  1
  Mo  Mo1  1  1.86098000  1.82410000  -0.06579850  1
  Mo  Mo2  1  1.81844000  7.15008000  1.83995000  1
  Mo  Mo3  1  7.22206000  1.83731000  1.89617000  1
  Mo  Mo4  1  3.58374000  7.27701000  3.69410000  1
  Mo  Mo5  1  5.39723000  1.92150000  0.12702800  1
  Mo  Mo6  1  5.41311000  7.21501000  1.88260000  1
  Mo  Mo7  1  3.70258000  1.81460000  1.56750000  1
  Mo  Mo8  1  7.20296000  3.49874000  3.59411000  1
  Mo  Mo9  1  1.75650000  5.31266000  0.00524127  1
  Mo  Mo10  1  2.01641000  3.52584000  1.79688000  1
  Mo  Mo11  1  7.42722000  5.47437000  1.75920000  1
  Mo  Mo12  1  3.67029000  3.66639000  -0.04900360  1
  Mo  Mo13  1  5.69414000  5.50518000  3.64666000  1
  Mo  Mo14  1  5.41245000  3.78541000  1.82716000  1
  Mo  Mo15  1  3.51035000  5.54772000  1.90047000  1
