# generated using pymatgen
data_Mo
_symmetry_space_group_name_H-M   'P 1'
_cell_length_a   7.31012717
_cell_length_b   7.31012717
_cell_length_c   3.65506363
_cell_angle_alpha   90.00000000
_cell_angle_beta   90.00000000
_cell_angle_gamma   90.00000000
_symmetry_Int_Tables_number   1
_chemical_formula_structural   Mo
_chemical_formula_sum   Mo16
_cell_volume   195.31914108
_cell_formula_units_Z   16
loop_
 _symmetry_equiv_pos_site_id
 _symmetry_equiv_pos_as_xyz
  1  'x, y, z'
loop_
 _atom_site_type_symbol
 _atom_site_label
 _atom_site_symmetry_multiplicity
 _atom_site_fract_x
 _atom_site_fract_y
 _atom_site_fract_z
 _atom_site_occupancy
  Mo  Mo0  1  7.37739000  0.04781470  3.64946000  1
  Mo  Mo1  1  1.79489000  1.79200000  3.64226000  1
  Mo  Mo2  1  1.79453000  0.02279460  1.95553000  1
  Mo  Mo3  1  7.17170000  1.83068000  1.75821000  1
  Mo  Mo4  1  3.56732000  7.24353000  -0.19415400  1
  Mo  Mo5  1  5.52916000  1.84877000  3.63722000  1
  Mo  Mo6  1  5.61171000  7.16157000  1.95466000  1
  Mo  Mo7  1  3.67128000  1.79477000  1.80446000  1
  Mo  Mo8  1  -0.13561200  3.71998000  3.52754000  1
  Mo  Mo9  1  1.84914000  5.50940000  3.63644000  1
  Mo  Mo10  1  1.91246000  3.55453000  1.70192000  1
  Mo  Mo11  1  -0.01018880  5.44766000  1.75472000  1
  Mo  Mo12  1  3.61928000  3.74650000  0.07597430  1
  Mo  Mo13  1  5.33141000  5.59887000  0.15373000  1
  Mo  Mo14  1  5.46846000  3.63755000  1.81378000  1
  Mo  Mo15  1  3.67107000  5.26759000  1.89531000  1
