# generated using pymatgen
data_Mo
_symmetry_space_group_name_H-M   'P 1'
_cell_length_a   7.33357816
_cell_length_b   7.33357816
_cell_length_c   3.66678905
_cell_angle_alpha   90.00000000
_cell_angle_beta   90.00000000
_cell_angle_gamma   90.00000000
_symmetry_Int_Tables_number   1
_chemical_formula_structural   Mo
_chemical_formula_sum   Mo16
_cell_volume   197.20493385
_cell_formula_units_Z   16
loop_
 _symmetry_equiv_pos_site_id
 _symmetry_equiv_pos_as_xyz
  1  'x, y, z'
loop_
 _atom_site_type_symbol
 _atom_site_label
 _atom_site_symmetry_multiplicity
 _atom_site_fract_x
 _atom_site_fract_y
 _atom_site_fract_z
 _atom_site_occupancy
  Mo  Mo0  1  -0.00210667  7.35811000  -0.18050600  1
  Mo  Mo1  1  1.86399000  1.89829000  3.56352000  1
  Mo  Mo2  1  1.77934000  -0.14780600  1.91799000  1
  Mo  Mo3  1  7.52061000  1.82401000  1.91037000  1
  Mo  Mo4  1  3.58046000  7.00111000  0.08057030  1
  Mo  Mo5  1  5.44502000  1.82781000  -0.00748616  1
  Mo  Mo6  1  5.48544000  7.55618000  1.82250000  1
  Mo  Mo7  1  3.72428000  1.84583000  1.84808000  1
  Mo  Mo8  1  -0.12601200  3.80976000  -0.04063540  1
  Mo  Mo9  1  1.72086000  5.34010000  3.57771000  1
  Mo  Mo10  1  1.72101000  3.80266000  1.76331000  1
  Mo  Mo11  1  7.23841000  5.53423000  1.66310000  1
  Mo  Mo12  1  3.77668000  3.39323000  3.75243000  1
  Mo  Mo13  1  5.36860000  5.51445000  3.73138000  1
  Mo  Mo14  1  5.56711000  3.67363000  1.75329000  1
  Mo  Mo15  1  3.56031000  5.32597000  1.95638000  1
