# generated using pymatgen
data_Mo
_symmetry_space_group_name_H-M   'P 1'
_cell_length_a   7.33357816
_cell_length_b   7.33357816
_cell_length_c   3.66678905
_cell_angle_alpha   90.00000000
_cell_angle_beta   90.00000000
_cell_angle_gamma   90.00000000
_symmetry_Int_Tables_number   1
_chemical_formula_structural   Mo
_chemical_formula_sum   Mo16
_cell_volume   197.20493385
_cell_formula_units_Z   16
loop_
 _symmetry_equiv_pos_site_id
 _symmetry_equiv_pos_as_xyz
  1  'x, y, z'
loop_
 _atom_site_type_symbol
 _atom_site_label
 _atom_site_symmetry_multiplicity
 _atom_site_fract_x
 _atom_site_fract_y
 _atom_site_fract_z
 _atom_site_occupancy
  Mo  Mo0  1  -0.08173670  7.37581000  -0.00398325  1
  Mo  Mo1  1  1.77827000  1.90050000  3.73566000  1
  Mo  Mo2  1  1.94769000  -0.14088100  1.75580000  1
  Mo  Mo3  1  7.36480000  1.76581000  1.94770000  1
  Mo  Mo4  1  3.68806000  7.21022000  -0.06273210  1
  Mo  Mo5  1  5.50775000  1.88062000  0.10545500  1
  Mo  Mo6  1  5.48311000  7.37688000  1.77107000  1
  Mo  Mo7  1  3.68729000  1.85764000  1.86786000  1
  Mo  Mo8  1  -0.02755050  3.71146000  0.00469958  1
  Mo  Mo9  1  1.67333000  5.49125000  3.53203000  1
  Mo  Mo10  1  1.71727000  3.65165000  1.80658000  1
  Mo  Mo11  1  7.14926000  5.47863000  1.75519000  1
  Mo  Mo12  1  3.70043000  3.65897000  3.69936000  1
  Mo  Mo13  1  5.53176000  5.35846000  3.66189000  1
  Mo  Mo14  1  5.57071000  3.56399000  1.92903000  1
  Mo  Mo15  1  3.53356000  5.41657000  1.60638000  1
