# generated using pymatgen
data_Mo
_symmetry_space_group_name_H-M   'P 1'
_cell_length_a   7.33357816
_cell_length_b   7.33357816
_cell_length_c   3.66678905
_cell_angle_alpha   90.00000000
_cell_angle_beta   90.00000000
_cell_angle_gamma   90.00000000
_symmetry_Int_Tables_number   1
_chemical_formula_structural   Mo
_chemical_formula_sum   Mo16
_cell_volume   197.20493385
_cell_formula_units_Z   16
loop_
 _symmetry_equiv_pos_site_id
 _symmetry_equiv_pos_as_xyz
  1  'x, y, z'
loop_
 _atom_site_type_symbol
 _atom_site_label
 _atom_site_symmetry_multiplicity
 _atom_site_fract_x
 _atom_site_fract_y
 _atom_site_fract_z
 _atom_site_occupancy
  Mo  Mo0  1  -0.07605120  7.35883000  0.07857610  1
  Mo  Mo1  1  1.78270000  1.82066000  3.61807000  1
  Mo  Mo2  1  1.88356000  -0.03057010  1.94114000  1
  Mo  Mo3  1  7.07108000  1.87873000  1.80900000  1
  Mo  Mo4  1  3.83091000  7.23777000  0.03982160  1
  Mo  Mo5  1  5.26928000  1.82613000  -0.08605490  1
  Mo  Mo6  1  5.48347000  7.09405000  1.84419000  1
  Mo  Mo7  1  3.57624000  1.79972000  1.77505000  1
  Mo  Mo8  1  -0.12894100  3.61801000  -0.19501400  1
  Mo  Mo9  1  1.94352000  5.36371000  3.74103000  1
  Mo  Mo10  1  1.87577000  3.47656000  1.87485000  1
  Mo  Mo11  1  7.40084000  5.43115000  1.94078000  1
  Mo  Mo12  1  3.59524000  3.68235000  3.82098000  1
  Mo  Mo13  1  5.56187000  5.55637000  3.53507000  1
  Mo  Mo14  1  5.45888000  3.88850000  1.58013000  1
  Mo  Mo15  1  3.69564000  5.55560000  1.79440000  1
