# generated using pymatgen
data_Mo
_symmetry_space_group_name_H-M   'P 1'
_cell_length_a   7.33357816
_cell_length_b   7.33357816
_cell_length_c   3.66678905
_cell_angle_alpha   90.00000000
_cell_angle_beta   90.00000000
_cell_angle_gamma   90.00000000
_symmetry_Int_Tables_number   1
_chemical_formula_structural   Mo
_chemical_formula_sum   Mo16
_cell_volume   197.20493385
_cell_formula_units_Z   16
loop_
 _symmetry_equiv_pos_site_id
 _symmetry_equiv_pos_as_xyz
  1  'x, y, z'
loop_
 _atom_site_type_symbol
 _atom_site_label
 _atom_site_symmetry_multiplicity
 _atom_site_fract_x
 _atom_site_fract_y
 _atom_site_fract_z
 _atom_site_occupancy
  Mo  Mo0  1  -0.05465810  7.38179000  0.07551900  1
  Mo  Mo1  1  1.70027000  1.73933000  3.77287000  1
  Mo  Mo2  1  1.86357000  0.04242580  1.89097000  1
  Mo  Mo3  1  7.22418000  1.85877000  1.88236000  1
  Mo  Mo4  1  3.50168000  7.34005000  -0.14878500  1
  Mo  Mo5  1  5.46252000  1.72893000  -0.04842980  1
  Mo  Mo6  1  5.49360000  7.19673000  1.84367000  1
  Mo  Mo7  1  3.72537000  1.71763000  1.68993000  1
  Mo  Mo8  1  0.01971580  3.83762000  -0.01512200  1
  Mo  Mo9  1  1.86449000  5.51302000  3.67548000  1
  Mo  Mo10  1  1.87212000  3.30830000  1.82878000  1
  Mo  Mo11  1  7.32389000  5.67156000  1.81148000  1
  Mo  Mo12  1  3.56714000  3.56105000  3.44066000  1
  Mo  Mo13  1  5.37818000  5.38605000  3.75194000  1
  Mo  Mo14  1  5.52471000  3.73562000  1.86501000  1
  Mo  Mo15  1  3.75720000  5.53869000  1.79568000  1
