# generated using pymatgen
data_Mo
_symmetry_space_group_name_H-M   'P 1'
_cell_length_a   7.33357816
_cell_length_b   7.33357816
_cell_length_c   3.66678905
_cell_angle_alpha   90.00000000
_cell_angle_beta   90.00000000
_cell_angle_gamma   90.00000000
_symmetry_Int_Tables_number   1
_chemical_formula_structural   Mo
_chemical_formula_sum   Mo16
_cell_volume   197.20493385
_cell_formula_units_Z   16
loop_
 _symmetry_equiv_pos_site_id
 _symmetry_equiv_pos_as_xyz
  1  'x, y, z'
loop_
 _atom_site_type_symbol
 _atom_site_label
 _atom_site_symmetry_multiplicity
 _atom_site_fract_x
 _atom_site_fract_y
 _atom_site_fract_z
 _atom_site_occupancy
  Mo  Mo0  1  0.08139850  7.33804000  -0.08703190  1
  Mo  Mo1  1  1.76914000  1.86534000  3.67582000  1
  Mo  Mo2  1  1.93117000  0.08747160  1.69570000  1
  Mo  Mo3  1  7.25726000  1.88468000  1.90573000  1
  Mo  Mo4  1  3.69891000  7.28449000  0.00643875  1
  Mo  Mo5  1  5.43077000  1.59286000  0.04482150  1
  Mo  Mo6  1  5.41826000  7.11847000  1.97335000  1
  Mo  Mo7  1  3.64777000  1.99623000  1.89326000  1
  Mo  Mo8  1  -0.16404900  3.45929000  0.00121359  1
  Mo  Mo9  1  1.92449000  5.38645000  3.47004000  1
  Mo  Mo10  1  1.68444000  3.75441000  1.68685000  1
  Mo  Mo11  1  7.24655000  5.48959000  1.74638000  1
  Mo  Mo12  1  3.60169000  3.68933000  3.59925000  1
  Mo  Mo13  1  5.43695000  5.54312000  3.70909000  1
  Mo  Mo14  1  5.49026000  3.59957000  1.88225000  1
  Mo  Mo15  1  3.76898000  5.46821000  1.90884000  1
