# generated using pymatgen
data_Mo
_symmetry_space_group_name_H-M   'P 1'
_cell_length_a   7.33357816
_cell_length_b   7.33357816
_cell_length_c   3.66678905
_cell_angle_alpha   90.00000000
_cell_angle_beta   90.00000000
_cell_angle_gamma   90.00000000
_symmetry_Int_Tables_number   1
_chemical_formula_structural   Mo
_chemical_formula_sum   Mo16
_cell_volume   197.20493385
_cell_formula_units_Z   16
loop_
 _symmetry_equiv_pos_site_id
 _symmetry_equiv_pos_as_xyz
  1  'x, y, z'
loop_
 _atom_site_type_symbol
 _atom_site_label
 _atom_site_symmetry_multiplicity
 _atom_site_fract_x
 _atom_site_fract_y
 _atom_site_fract_z
 _atom_site_occupancy
  Mo  Mo0  1  -0.05285640  7.43505000  0.04347510  1
  Mo  Mo1  1  1.82377000  1.77450000  3.54877000  1
  Mo  Mo2  1  1.95958000  -0.12637900  1.89624000  1
  Mo  Mo3  1  7.20369000  1.82593000  1.75122000  1
  Mo  Mo4  1  3.60774000  7.38842000  0.15720500  1
  Mo  Mo5  1  5.56737000  1.84413000  -0.03385300  1
  Mo  Mo6  1  5.50917000  7.36835000  2.03643000  1
  Mo  Mo7  1  3.71203000  1.89403000  1.61106000  1
  Mo  Mo8  1  -0.17068600  3.66081000  0.13013800  1
  Mo  Mo9  1  1.87774000  5.42034000  3.55548000  1
  Mo  Mo10  1  1.64288000  3.57529000  1.69742000  1
  Mo  Mo11  1  7.28591000  5.34006000  1.82486000  1
  Mo  Mo12  1  3.67575000  3.55316000  3.51335000  1
  Mo  Mo13  1  5.32228000  5.59986000  3.68759000  1
  Mo  Mo14  1  5.57835000  3.73782000  1.78468000  1
  Mo  Mo15  1  3.68130000  5.26622000  1.90794000  1
