# generated using pymatgen
data_Mo
_symmetry_space_group_name_H-M   'P 1'
_cell_length_a   7.33357816
_cell_length_b   7.33357816
_cell_length_c   3.66678905
_cell_angle_alpha   90.00000000
_cell_angle_beta   90.00000000
_cell_angle_gamma   90.00000000
_symmetry_Int_Tables_number   1
_chemical_formula_structural   Mo
_chemical_formula_sum   Mo16
_cell_volume   197.20493385
_cell_formula_units_Z   16
loop_
 _symmetry_equiv_pos_site_id
 _symmetry_equiv_pos_as_xyz
  1  'x, y, z'
loop_
 _atom_site_type_symbol
 _atom_site_label
 _atom_site_symmetry_multiplicity
 _atom_site_fract_x
 _atom_site_fract_y
 _atom_site_fract_z
 _atom_site_occupancy
  Mo  Mo0  1  -0.13067200  7.28917000  -0.11606600  1
  Mo  Mo1  1  1.78130000  1.93614000  3.81634000  1
  Mo  Mo2  1  1.89347000  0.04488270  1.83176000  1
  Mo  Mo3  1  7.28927000  1.69005000  1.75460000  1
  Mo  Mo4  1  3.73146000  7.37392000  -0.01433630  1
  Mo  Mo5  1  5.40865000  1.65932000  -0.05723910  1
  Mo  Mo6  1  5.28806000  7.34006000  1.75764000  1
  Mo  Mo7  1  3.38920000  1.77191000  1.78503000  1
  Mo  Mo8  1  -0.03385730  3.62796000  0.09749300  1
  Mo  Mo9  1  1.98140000  5.54287000  3.67257000  1
  Mo  Mo10  1  1.76760000  3.64432000  1.87359000  1
  Mo  Mo11  1  7.45563000  5.47601000  1.84083000  1
  Mo  Mo12  1  3.64429000  3.57246000  3.63554000  1
  Mo  Mo13  1  5.49040000  5.54020000  3.61871000  1
  Mo  Mo14  1  5.51721000  3.59862000  1.64915000  1
  Mo  Mo15  1  3.75061000  5.44967000  1.96638000  1
