# generated using pymatgen
data_Mo
_symmetry_space_group_name_H-M   'P 1'
_cell_length_a   7.33357816
_cell_length_b   7.33357816
_cell_length_c   3.66678905
_cell_angle_alpha   90.00000000
_cell_angle_beta   90.00000000
_cell_angle_gamma   90.00000000
_symmetry_Int_Tables_number   1
_chemical_formula_structural   Mo
_chemical_formula_sum   Mo16
_cell_volume   197.20493385
_cell_formula_units_Z   16
loop_
 _symmetry_equiv_pos_site_id
 _symmetry_equiv_pos_as_xyz
  1  'x, y, z'
loop_
 _atom_site_type_symbol
 _atom_site_label
 _atom_site_symmetry_multiplicity
 _atom_site_fract_x
 _atom_site_fract_y
 _atom_site_fract_z
 _atom_site_occupancy
  Mo  Mo0  1  -0.18350900  7.19495000  -0.05828740  1
  Mo  Mo1  1  1.80682000  1.74504000  3.64743000  1
  Mo  Mo2  1  1.83298000  0.09326670  1.74811000  1
  Mo  Mo3  1  7.33181000  1.68370000  1.76387000  1
  Mo  Mo4  1  3.69394000  7.22937000  -0.01422170  1
  Mo  Mo5  1  5.37250000  1.84055000  -0.11161500  1
  Mo  Mo6  1  5.39975000  7.32381000  1.77427000  1
  Mo  Mo7  1  3.81692000  1.94842000  1.77210000  1
  Mo  Mo8  1  -0.05298540  3.55358000  -0.00492089  1
  Mo  Mo9  1  1.82516000  5.58603000  3.66795000  1
  Mo  Mo10  1  1.55765000  3.43894000  1.84731000  1
  Mo  Mo11  1  7.38688000  5.51445000  1.81994000  1
  Mo  Mo12  1  3.62534000  3.47265000  3.57449000  1
  Mo  Mo13  1  5.41717000  5.51386000  3.77613000  1
  Mo  Mo14  1  5.68659000  3.82408000  1.94572000  1
  Mo  Mo15  1  3.70698000  5.59488000  1.96373000  1
