# generated using pymatgen
data_Mo
_symmetry_space_group_name_H-M   'P 1'
_cell_length_a   7.33357816
_cell_length_b   7.33357816
_cell_length_c   3.66678905
_cell_angle_alpha   90.00000000
_cell_angle_beta   90.00000000
_cell_angle_gamma   90.00000000
_symmetry_Int_Tables_number   1
_chemical_formula_structural   Mo
_chemical_formula_sum   Mo16
_cell_volume   197.20493385
_cell_formula_units_Z   16
loop_
 _symmetry_equiv_pos_site_id
 _symmetry_equiv_pos_as_xyz
  1  'x, y, z'
loop_
 _atom_site_type_symbol
 _atom_site_label
 _atom_site_symmetry_multiplicity
 _atom_site_fract_x
 _atom_site_fract_y
 _atom_site_fract_z
 _atom_site_occupancy
  Mo  Mo0  1  0.20439600  7.40142000  0.07573860  1
  Mo  Mo1  1  1.70719000  1.93066000  3.55426000  1
  Mo  Mo2  1  1.93103000  -0.13327800  1.81428000  1
  Mo  Mo3  1  7.27725000  1.78002000  1.81325000  1
  Mo  Mo4  1  3.57597000  7.42973000  -0.01845660  1
  Mo  Mo5  1  5.33269000  1.80589000  -0.09473950  1
  Mo  Mo6  1  5.54745000  7.35064000  1.93190000  1
  Mo  Mo7  1  3.66375000  1.74593000  1.94759000  1
  Mo  Mo8  1  -0.20729700  3.64847000  -0.06079340  1
  Mo  Mo9  1  1.85927000  5.47105000  3.53525000  1
  Mo  Mo10  1  1.77475000  3.55511000  1.87037000  1
  Mo  Mo11  1  7.22441000  5.32989000  1.84189000  1
  Mo  Mo12  1  3.60944000  3.57726000  3.66482000  1
  Mo  Mo13  1  5.60487000  5.51407000  3.55676000  1
  Mo  Mo14  1  5.40580000  3.61924000  1.72040000  1
  Mo  Mo15  1  3.71302000  5.53148000  1.95947000  1
