# generated using pymatgen
data_Mo
_symmetry_space_group_name_H-M   'P 1'
_cell_length_a   7.29789726
_cell_length_b   7.29789726
_cell_length_c   3.64894867
_cell_angle_alpha   90.00000000
_cell_angle_beta   90.00000000
_cell_angle_gamma   90.00000000
_symmetry_Int_Tables_number   1
_chemical_formula_structural   Mo
_chemical_formula_sum   Mo16
_cell_volume   194.34046797
_cell_formula_units_Z   16
loop_
 _symmetry_equiv_pos_site_id
 _symmetry_equiv_pos_as_xyz
  1  'x, y, z'
loop_
 _atom_site_type_symbol
 _atom_site_label
 _atom_site_symmetry_multiplicity
 _atom_site_fract_x
 _atom_site_fract_y
 _atom_site_fract_z
 _atom_site_occupancy
  Mo  Mo0  1  7.26004000  0.11911800  -0.03644260  1
  Mo  Mo1  1  1.96213000  1.83426000  0.08761980  1
  Mo  Mo2  1  1.69536000  7.42457000  1.68339000  1
  Mo  Mo3  1  7.25621000  1.81941000  1.80024000  1
  Mo  Mo4  1  3.52166000  7.27125000  3.71143000  1
  Mo  Mo5  1  5.37231000  1.74015000  0.04222940  1
  Mo  Mo6  1  5.51632000  7.23220000  1.73941000  1
  Mo  Mo7  1  3.75688000  1.72824000  1.98188000  1
  Mo  Mo8  1  7.22667000  3.60419000  3.58999000  1
  Mo  Mo9  1  1.66147000  5.49397000  -0.09236930  1
  Mo  Mo10  1  1.99637000  3.58069000  1.82966000  1
  Mo  Mo11  1  7.36875000  5.29909000  1.61852000  1
  Mo  Mo12  1  3.80851000  3.73815000  0.15667500  1
  Mo  Mo13  1  5.39949000  5.56736000  3.59509000  1
  Mo  Mo14  1  5.42420000  3.51138000  1.92113000  1
  Mo  Mo15  1  3.59341000  5.55786000  1.83459000  1
