# generated using pymatgen
data_Mo
_symmetry_space_group_name_H-M   'P 1'
_cell_length_a   7.33357816
_cell_length_b   7.33357816
_cell_length_c   3.66678905
_cell_angle_alpha   90.00000000
_cell_angle_beta   90.00000000
_cell_angle_gamma   90.00000000
_symmetry_Int_Tables_number   1
_chemical_formula_structural   Mo
_chemical_formula_sum   Mo16
_cell_volume   197.20493385
_cell_formula_units_Z   16
loop_
 _symmetry_equiv_pos_site_id
 _symmetry_equiv_pos_as_xyz
  1  'x, y, z'
loop_
 _atom_site_type_symbol
 _atom_site_label
 _atom_site_symmetry_multiplicity
 _atom_site_fract_x
 _atom_site_fract_y
 _atom_site_fract_z
 _atom_site_occupancy
  Mo  Mo0  1  -0.11345800  7.29155000  -0.08262050  1
  Mo  Mo1  1  1.91562000  1.88115000  3.64530000  1
  Mo  Mo2  1  1.97817000  -0.01356950  1.67742000  1
  Mo  Mo3  1  7.50250000  1.72648000  1.83093000  1
  Mo  Mo4  1  3.52984000  7.23785000  -0.14499400  1
  Mo  Mo5  1  5.68829000  1.72333000  -0.12368200  1
  Mo  Mo6  1  5.21402000  7.32957000  1.83715000  1
  Mo  Mo7  1  3.56422000  1.89374000  1.75912000  1
  Mo  Mo8  1  -0.03964940  3.59021000  0.20598300  1
  Mo  Mo9  1  1.62255000  5.42982000  3.67729000  1
  Mo  Mo10  1  1.71791000  3.72176000  1.85025000  1
  Mo  Mo11  1  7.31011000  5.65869000  1.83628000  1
  Mo  Mo12  1  3.65727000  3.54555000  3.62092000  1
  Mo  Mo13  1  5.31848000  5.52213000  3.76293000  1
  Mo  Mo14  1  5.59691000  3.65559000  1.85075000  1
  Mo  Mo15  1  3.76121000  5.36373000  1.90898000  1
