# generated using pymatgen
data_Mo
_symmetry_space_group_name_H-M   'P 1'
_cell_length_a   7.33357816
_cell_length_b   7.33357816
_cell_length_c   3.66678905
_cell_angle_alpha   90.00000000
_cell_angle_beta   90.00000000
_cell_angle_gamma   90.00000000
_symmetry_Int_Tables_number   1
_chemical_formula_structural   Mo
_chemical_formula_sum   Mo16
_cell_volume   197.20493385
_cell_formula_units_Z   16
loop_
 _symmetry_equiv_pos_site_id
 _symmetry_equiv_pos_as_xyz
  1  'x, y, z'
loop_
 _atom_site_type_symbol
 _atom_site_label
 _atom_site_symmetry_multiplicity
 _atom_site_fract_x
 _atom_site_fract_y
 _atom_site_fract_z
 _atom_site_occupancy
  Mo  Mo0  1  -0.06666040  7.22102000  0.02248410  1
  Mo  Mo1  1  1.74310000  1.90277000  3.54860000  1
  Mo  Mo2  1  1.82652000  0.00614817  1.68115000  1
  Mo  Mo3  1  7.28812000  1.77284000  1.75446000  1
  Mo  Mo4  1  3.65544000  7.50291000  -0.13112000  1
  Mo  Mo5  1  5.68827000  1.71109000  -0.08135770  1
  Mo  Mo6  1  5.22578000  7.33729000  1.74831000  1
  Mo  Mo7  1  3.67316000  1.71693000  1.48679000  1
  Mo  Mo8  1  0.05693920  3.67553000  0.25882300  1
  Mo  Mo9  1  1.79509000  5.54303000  3.64015000  1
  Mo  Mo10  1  1.70029000  3.44618000  1.82088000  1
  Mo  Mo11  1  7.26659000  5.42488000  1.97662000  1
  Mo  Mo12  1  3.71443000  3.58549000  3.71971000  1
  Mo  Mo13  1  5.52302000  5.60213000  3.90830000  1
  Mo  Mo14  1  5.53504000  3.64995000  1.92300000  1
  Mo  Mo15  1  3.59890000  5.45940000  1.83519000  1
