# generated using pymatgen
data_Mo
_symmetry_space_group_name_H-M   'P 1'
_cell_length_a   7.33357816
_cell_length_b   7.33357816
_cell_length_c   3.66678905
_cell_angle_alpha   90.00000000
_cell_angle_beta   90.00000000
_cell_angle_gamma   90.00000000
_symmetry_Int_Tables_number   1
_chemical_formula_structural   Mo
_chemical_formula_sum   Mo16
_cell_volume   197.20493385
_cell_formula_units_Z   16
loop_
 _symmetry_equiv_pos_site_id
 _symmetry_equiv_pos_as_xyz
  1  'x, y, z'
loop_
 _atom_site_type_symbol
 _atom_site_label
 _atom_site_symmetry_multiplicity
 _atom_site_fract_x
 _atom_site_fract_y
 _atom_site_fract_z
 _atom_site_occupancy
  Mo  Mo0  1  -0.07713960  7.39713000  0.00189020  1
  Mo  Mo1  1  1.90196000  1.75816000  3.66328000  1
  Mo  Mo2  1  1.75607000  -0.22055600  1.77965000  1
  Mo  Mo3  1  7.33965000  1.75936000  1.95209000  1
  Mo  Mo4  1  3.74925000  7.43469000  0.17352300  1
  Mo  Mo5  1  5.55322000  1.82617000  -0.00472785  1
  Mo  Mo6  1  5.56582000  7.33346000  1.81860000  1
  Mo  Mo7  1  3.62778000  1.77736000  1.78130000  1
  Mo  Mo8  1  -0.17988600  3.51080000  0.05081410  1
  Mo  Mo9  1  1.74558000  5.55361000  3.63563000  1
  Mo  Mo10  1  1.74496000  3.59449000  1.91678000  1
  Mo  Mo11  1  7.25407000  5.44230000  1.82326000  1
  Mo  Mo12  1  3.68985000  3.72575000  3.63087000  1
  Mo  Mo13  1  5.55382000  5.64686000  3.51113000  1
  Mo  Mo14  1  5.35660000  3.52917000  1.68002000  1
  Mo  Mo15  1  3.64239000  5.48882000  1.69790000  1
