# generated using pymatgen
data_Mo
_symmetry_space_group_name_H-M   'P 1'
_cell_length_a   7.33357816
_cell_length_b   7.33357816
_cell_length_c   3.66678905
_cell_angle_alpha   90.00000000
_cell_angle_beta   90.00000000
_cell_angle_gamma   90.00000000
_symmetry_Int_Tables_number   1
_chemical_formula_structural   Mo
_chemical_formula_sum   Mo16
_cell_volume   197.20493385
_cell_formula_units_Z   16
loop_
 _symmetry_equiv_pos_site_id
 _symmetry_equiv_pos_as_xyz
  1  'x, y, z'
loop_
 _atom_site_type_symbol
 _atom_site_label
 _atom_site_symmetry_multiplicity
 _atom_site_fract_x
 _atom_site_fract_y
 _atom_site_fract_z
 _atom_site_occupancy
  Mo  Mo0  1  0.08538600  7.05117000  0.01269490  1
  Mo  Mo1  1  1.88086000  1.98281000  3.58939000  1
  Mo  Mo2  1  1.78502000  -0.06509600  1.85119000  1
  Mo  Mo3  1  7.43391000  1.75687000  1.94836000  1
  Mo  Mo4  1  3.49421000  7.24463000  -0.02510010  1
  Mo  Mo5  1  5.45275000  1.63975000  -0.01792990  1
  Mo  Mo6  1  5.54249000  7.46230000  1.80820000  1
  Mo  Mo7  1  3.71021000  2.00303000  1.64012000  1
  Mo  Mo8  1  -0.22262300  3.56650000  0.13830200  1
  Mo  Mo9  1  1.72529000  5.46110000  3.65337000  1
  Mo  Mo10  1  1.81893000  3.78836000  1.84821000  1
  Mo  Mo11  1  7.21214000  5.31490000  1.84193000  1
  Mo  Mo12  1  3.78596000  3.65384000  3.54446000  1
  Mo  Mo13  1  5.50187000  5.59767000  3.69948000  1
  Mo  Mo14  1  5.36412000  3.49908000  1.69236000  1
  Mo  Mo15  1  3.65348000  5.60066000  1.88697000  1
