# generated using pymatgen
data_Mo
_symmetry_space_group_name_H-M   'P 1'
_cell_length_a   7.33357816
_cell_length_b   7.33357816
_cell_length_c   3.66678905
_cell_angle_alpha   90.00000000
_cell_angle_beta   90.00000000
_cell_angle_gamma   90.00000000
_symmetry_Int_Tables_number   1
_chemical_formula_structural   Mo
_chemical_formula_sum   Mo16
_cell_volume   197.20493385
_cell_formula_units_Z   16
loop_
 _symmetry_equiv_pos_site_id
 _symmetry_equiv_pos_as_xyz
  1  'x, y, z'
loop_
 _atom_site_type_symbol
 _atom_site_label
 _atom_site_symmetry_multiplicity
 _atom_site_fract_x
 _atom_site_fract_y
 _atom_site_fract_z
 _atom_site_occupancy
  Mo  Mo0  1  0.05488100  7.32637000  -0.00627572  1
  Mo  Mo1  1  2.02356000  1.84602000  3.63351000  1
  Mo  Mo2  1  1.84381000  0.07713660  1.77745000  1
  Mo  Mo3  1  7.10481000  1.70317000  1.88603000  1
  Mo  Mo4  1  3.56805000  7.11519000  -0.02478870  1
  Mo  Mo5  1  5.38757000  1.70990000  0.19980500  1
  Mo  Mo6  1  5.53282000  7.18555000  1.75938000  1
  Mo  Mo7  1  3.65738000  1.79981000  2.02343000  1
  Mo  Mo8  1  -0.09921450  3.62091000  -0.06215250  1
  Mo  Mo9  1  1.73527000  5.60017000  3.66509000  1
  Mo  Mo10  1  1.70388000  3.71252000  1.94465000  1
  Mo  Mo11  1  7.22648000  5.48101000  1.59253000  1
  Mo  Mo12  1  3.74050000  3.73009000  3.72242000  1
  Mo  Mo13  1  5.52397000  5.40738000  3.44434000  1
  Mo  Mo14  1  5.48036000  3.67377000  1.84867000  1
  Mo  Mo15  1  3.73988000  5.56858000  1.70791000  1
