# generated using pymatgen
data_Mo
_symmetry_space_group_name_H-M   'P 1'
_cell_length_a   7.33357816
_cell_length_b   7.33357816
_cell_length_c   3.66678905
_cell_angle_alpha   90.00000000
_cell_angle_beta   90.00000000
_cell_angle_gamma   90.00000000
_symmetry_Int_Tables_number   1
_chemical_formula_structural   Mo
_chemical_formula_sum   Mo16
_cell_volume   197.20493385
_cell_formula_units_Z   16
loop_
 _symmetry_equiv_pos_site_id
 _symmetry_equiv_pos_as_xyz
  1  'x, y, z'
loop_
 _atom_site_type_symbol
 _atom_site_label
 _atom_site_symmetry_multiplicity
 _atom_site_fract_x
 _atom_site_fract_y
 _atom_site_fract_z
 _atom_site_occupancy
  Mo  Mo0  1  -0.11084200  7.49807000  -0.00142343  1
  Mo  Mo1  1  1.87162000  1.60236000  3.58041000  1
  Mo  Mo2  1  1.85829000  -0.01701770  1.68972000  1
  Mo  Mo3  1  7.37033000  1.85820000  1.92392000  1
  Mo  Mo4  1  3.76355000  7.18692000  0.09677870  1
  Mo  Mo5  1  5.45863000  2.03220000  0.13988400  1
  Mo  Mo6  1  5.43552000  7.10945000  1.79081000  1
  Mo  Mo7  1  3.70258000  1.73352000  1.75099000  1
  Mo  Mo8  1  0.13273800  3.62510000  -0.01189240  1
  Mo  Mo9  1  1.61117000  5.62919000  3.64470000  1
  Mo  Mo10  1  1.84324000  3.81589000  1.68778000  1
  Mo  Mo11  1  7.12393000  5.43153000  1.80314000  1
  Mo  Mo12  1  3.42012000  3.60692000  3.75156000  1
  Mo  Mo13  1  5.59696000  5.41695000  3.64940000  1
  Mo  Mo14  1  5.51974000  3.63726000  1.84517000  1
  Mo  Mo15  1  3.62642000  5.39105000  1.77105000  1
