# generated using pymatgen
data_Mo
_symmetry_space_group_name_H-M   'P 1'
_cell_length_a   7.33357816
_cell_length_b   7.33357816
_cell_length_c   3.66678905
_cell_angle_alpha   90.00000000
_cell_angle_beta   90.00000000
_cell_angle_gamma   90.00000000
_symmetry_Int_Tables_number   1
_chemical_formula_structural   Mo
_chemical_formula_sum   Mo16
_cell_volume   197.20493385
_cell_formula_units_Z   16
loop_
 _symmetry_equiv_pos_site_id
 _symmetry_equiv_pos_as_xyz
  1  'x, y, z'
loop_
 _atom_site_type_symbol
 _atom_site_label
 _atom_site_symmetry_multiplicity
 _atom_site_fract_x
 _atom_site_fract_y
 _atom_site_fract_z
 _atom_site_occupancy
  Mo  Mo0  1  -0.01487950  7.26024000  -0.03885080  1
  Mo  Mo1  1  1.85626000  1.90158000  3.96791000  1
  Mo  Mo2  1  1.90600000  -0.01774290  1.91798000  1
  Mo  Mo3  1  7.17201000  1.62340000  1.66210000  1
  Mo  Mo4  1  3.52477000  7.43354000  0.05070410  1
  Mo  Mo5  1  5.43929000  1.88616000  -0.06872200  1
  Mo  Mo6  1  5.50396000  7.22343000  1.75265000  1
  Mo  Mo7  1  3.65630000  1.57525000  1.77626000  1
  Mo  Mo8  1  -0.03844160  3.82205000  -0.02695350  1
  Mo  Mo9  1  1.94198000  5.38830000  3.66392000  1
  Mo  Mo10  1  1.51396000  3.54368000  1.83874000  1
  Mo  Mo11  1  7.36425000  5.53307000  1.68133000  1
  Mo  Mo12  1  3.62899000  3.62544000  3.68391000  1
  Mo  Mo13  1  5.43776000  5.48552000  3.68408000  1
  Mo  Mo14  1  5.63657000  3.76622000  1.74984000  1
  Mo  Mo15  1  3.69523000  5.50743000  1.81710000  1
