# generated using pymatgen
data_Mo
_symmetry_space_group_name_H-M   'P 1'
_cell_length_a   7.33357816
_cell_length_b   7.33357816
_cell_length_c   3.66678905
_cell_angle_alpha   90.00000000
_cell_angle_beta   90.00000000
_cell_angle_gamma   90.00000000
_symmetry_Int_Tables_number   1
_chemical_formula_structural   Mo
_chemical_formula_sum   Mo16
_cell_volume   197.20493385
_cell_formula_units_Z   16
loop_
 _symmetry_equiv_pos_site_id
 _symmetry_equiv_pos_as_xyz
  1  'x, y, z'
loop_
 _atom_site_type_symbol
 _atom_site_label
 _atom_site_symmetry_multiplicity
 _atom_site_fract_x
 _atom_site_fract_y
 _atom_site_fract_z
 _atom_site_occupancy
  Mo  Mo0  1  -0.03993550  7.34849000  0.06468230  1
  Mo  Mo1  1  1.56999000  1.93104000  3.68549000  1
  Mo  Mo2  1  1.71199000  -0.11817200  1.85810000  1
  Mo  Mo3  1  7.19487000  1.66828000  1.79223000  1
  Mo  Mo4  1  3.56954000  7.34503000  -0.04932270  1
  Mo  Mo5  1  5.57157000  1.75793000  -0.05126190  1
  Mo  Mo6  1  5.45445000  7.23900000  1.74408000  1
  Mo  Mo7  1  3.63173000  1.81760000  1.85863000  1
  Mo  Mo8  1  -0.07771980  3.56645000  -0.03239310  1
  Mo  Mo9  1  2.02414000  5.51240000  3.57586000  1
  Mo  Mo10  1  1.78470000  3.64458000  1.90995000  1
  Mo  Mo11  1  7.47249000  5.46880000  1.87794000  1
  Mo  Mo12  1  3.50470000  3.56829000  3.78830000  1
  Mo  Mo13  1  5.69302000  5.43549000  3.59241000  1
  Mo  Mo14  1  5.46233000  3.70942000  1.81284000  1
  Mo  Mo15  1  3.69613000  5.66294000  1.68447000  1
