# generated using pymatgen
data_Mo
_symmetry_space_group_name_H-M   'P 1'
_cell_length_a   7.33357816
_cell_length_b   7.33357816
_cell_length_c   3.66678905
_cell_angle_alpha   90.00000000
_cell_angle_beta   90.00000000
_cell_angle_gamma   90.00000000
_symmetry_Int_Tables_number   1
_chemical_formula_structural   Mo
_chemical_formula_sum   Mo16
_cell_volume   197.20493385
_cell_formula_units_Z   16
loop_
 _symmetry_equiv_pos_site_id
 _symmetry_equiv_pos_as_xyz
  1  'x, y, z'
loop_
 _atom_site_type_symbol
 _atom_site_label
 _atom_site_symmetry_multiplicity
 _atom_site_fract_x
 _atom_site_fract_y
 _atom_site_fract_z
 _atom_site_occupancy
  Mo  Mo0  1  -0.12448600  7.15312000  -0.02863970  1
  Mo  Mo1  1  1.77618000  1.97315000  3.58389000  1
  Mo  Mo2  1  1.83882000  0.17604000  1.79195000  1
  Mo  Mo3  1  7.12913000  1.80871000  1.67168000  1
  Mo  Mo4  1  3.72196000  7.31747000  0.09605860  1
  Mo  Mo5  1  5.43603000  1.82807000  -0.04608740  1
  Mo  Mo6  1  5.51292000  7.27675000  1.91480000  1
  Mo  Mo7  1  3.44401000  1.89380000  1.76808000  1
  Mo  Mo8  1  -0.22699100  3.50062000  -0.08919450  1
  Mo  Mo9  1  1.86445000  5.25776000  3.68358000  1
  Mo  Mo10  1  1.91737000  3.60953000  1.75474000  1
  Mo  Mo11  1  7.55127000  5.49770000  2.02920000  1
  Mo  Mo12  1  3.75486000  3.78034000  3.64137000  1
  Mo  Mo13  1  5.42671000  5.42839000  3.59963000  1
  Mo  Mo14  1  5.46288000  3.57154000  1.85107000  1
  Mo  Mo15  1  3.73889000  5.48457000  1.88987000  1
