# generated using pymatgen
data_Mo
_symmetry_space_group_name_H-M   'P 1'
_cell_length_a   7.33357816
_cell_length_b   7.33357816
_cell_length_c   3.66678905
_cell_angle_alpha   90.00000000
_cell_angle_beta   90.00000000
_cell_angle_gamma   90.00000000
_symmetry_Int_Tables_number   1
_chemical_formula_structural   Mo
_chemical_formula_sum   Mo16
_cell_volume   197.20493385
_cell_formula_units_Z   16
loop_
 _symmetry_equiv_pos_site_id
 _symmetry_equiv_pos_as_xyz
  1  'x, y, z'
loop_
 _atom_site_type_symbol
 _atom_site_label
 _atom_site_symmetry_multiplicity
 _atom_site_fract_x
 _atom_site_fract_y
 _atom_site_fract_z
 _atom_site_occupancy
  Mo  Mo0  1  -0.26260800  7.39360000  -0.05431670  1
  Mo  Mo1  1  1.79037000  1.72209000  3.64186000  1
  Mo  Mo2  1  1.75507000  0.03549090  1.60021000  1
  Mo  Mo3  1  7.35662000  1.80251000  1.82178000  1
  Mo  Mo4  1  3.48268000  7.15832000  0.09885350  1
  Mo  Mo5  1  5.65215000  1.93858000  -0.00819058  1
  Mo  Mo6  1  5.36508000  7.26889000  1.83567000  1
  Mo  Mo7  1  3.71059000  1.65353000  1.79486000  1
  Mo  Mo8  1  0.08870130  3.79659000  0.14288300  1
  Mo  Mo9  1  1.63593000  5.60302000  3.71476000  1
  Mo  Mo10  1  1.96891000  3.61915000  1.80582000  1
  Mo  Mo11  1  7.21980000  5.46443000  1.75514000  1
  Mo  Mo12  1  3.71312000  3.73094000  3.70454000  1
  Mo  Mo13  1  5.48394000  5.38033000  3.61934000  1
  Mo  Mo14  1  5.49721000  3.50159000  1.82030000  1
  Mo  Mo15  1  3.76644000  5.48851000  1.81850000  1
