# generated using pymatgen
data_Mo
_symmetry_space_group_name_H-M   'P 1'
_cell_length_a   7.33357816
_cell_length_b   7.33357816
_cell_length_c   3.66678905
_cell_angle_alpha   90.00000000
_cell_angle_beta   90.00000000
_cell_angle_gamma   90.00000000
_symmetry_Int_Tables_number   1
_chemical_formula_structural   Mo
_chemical_formula_sum   Mo16
_cell_volume   197.20493385
_cell_formula_units_Z   16
loop_
 _symmetry_equiv_pos_site_id
 _symmetry_equiv_pos_as_xyz
  1  'x, y, z'
loop_
 _atom_site_type_symbol
 _atom_site_label
 _atom_site_symmetry_multiplicity
 _atom_site_fract_x
 _atom_site_fract_y
 _atom_site_fract_z
 _atom_site_occupancy
  Mo  Mo0  1  0.02723140  7.22201000  0.20947200  1
  Mo  Mo1  1  1.69662000  1.89609000  3.69791000  1
  Mo  Mo2  1  1.71266000  -0.04170760  1.71978000  1
  Mo  Mo3  1  7.32958000  1.84321000  1.99315000  1
  Mo  Mo4  1  3.72098000  7.46818000  -0.08356300  1
  Mo  Mo5  1  5.37621000  1.97527000  0.14094700  1
  Mo  Mo6  1  5.56237000  7.16072000  1.80044000  1
  Mo  Mo7  1  3.55088000  1.71319000  1.61737000  1
  Mo  Mo8  1  0.07780700  3.61408000  0.10234600  1
  Mo  Mo9  1  1.96025000  5.56287000  3.48692000  1
  Mo  Mo10  1  1.64248000  3.73442000  1.79439000  1
  Mo  Mo11  1  7.35771000  5.43701000  1.83954000  1
  Mo  Mo12  1  3.49738000  3.54013000  3.63263000  1
  Mo  Mo13  1  5.56128000  5.40773000  3.57550000  1
  Mo  Mo14  1  5.55991000  3.61552000  1.76678000  1
  Mo  Mo15  1  3.59066000  5.40885000  1.81840000  1
