# generated using pymatgen
data_Mo
_symmetry_space_group_name_H-M   'P 1'
_cell_length_a   7.33357816
_cell_length_b   7.33357816
_cell_length_c   3.66678905
_cell_angle_alpha   90.00000000
_cell_angle_beta   90.00000000
_cell_angle_gamma   90.00000000
_symmetry_Int_Tables_number   1
_chemical_formula_structural   Mo
_chemical_formula_sum   Mo16
_cell_volume   197.20493385
_cell_formula_units_Z   16
loop_
 _symmetry_equiv_pos_site_id
 _symmetry_equiv_pos_as_xyz
  1  'x, y, z'
loop_
 _atom_site_type_symbol
 _atom_site_label
 _atom_site_symmetry_multiplicity
 _atom_site_fract_x
 _atom_site_fract_y
 _atom_site_fract_z
 _atom_site_occupancy
  Mo  Mo0  1  -0.05055350  7.24065000  -0.01991820  1
  Mo  Mo1  1  1.78055000  1.83646000  3.70258000  1
  Mo  Mo2  1  1.72339000  0.11843000  1.67533000  1
  Mo  Mo3  1  7.39148000  1.95683000  1.79290000  1
  Mo  Mo4  1  3.66582000  7.16066000  0.01845080  1
  Mo  Mo5  1  5.58918000  1.91645000  0.06335470  1
  Mo  Mo6  1  5.50198000  7.18486000  1.76207000  1
  Mo  Mo7  1  3.78003000  1.61137000  1.79475000  1
  Mo  Mo8  1  0.15082600  3.65416000  -0.04253140  1
  Mo  Mo9  1  1.59419000  5.58296000  3.58811000  1
  Mo  Mo10  1  1.96684000  3.50974000  1.93095000  1
  Mo  Mo11  1  7.19896000  5.28932000  1.75407000  1
  Mo  Mo12  1  3.52439000  3.75418000  3.97557000  1
  Mo  Mo13  1  5.53734000  5.52439000  3.45191000  1
  Mo  Mo14  1  5.51040000  3.68998000  1.76240000  1
  Mo  Mo15  1  3.35919000  5.52714000  1.90201000  1
