# generated using pymatgen
data_Mo
_symmetry_space_group_name_H-M   'P 1'
_cell_length_a   7.33357816
_cell_length_b   7.33357816
_cell_length_c   3.66678905
_cell_angle_alpha   90.00000000
_cell_angle_beta   90.00000000
_cell_angle_gamma   90.00000000
_symmetry_Int_Tables_number   1
_chemical_formula_structural   Mo
_chemical_formula_sum   Mo16
_cell_volume   197.20493385
_cell_formula_units_Z   16
loop_
 _symmetry_equiv_pos_site_id
 _symmetry_equiv_pos_as_xyz
  1  'x, y, z'
loop_
 _atom_site_type_symbol
 _atom_site_label
 _atom_site_symmetry_multiplicity
 _atom_site_fract_x
 _atom_site_fract_y
 _atom_site_fract_z
 _atom_site_occupancy
  Mo  Mo0  1  -0.04043250  7.31781000  -0.01031680  1
  Mo  Mo1  1  1.87655000  1.69761000  3.65411000  1
  Mo  Mo2  1  1.77884000  -0.09835870  2.00037000  1
  Mo  Mo3  1  7.32376000  1.74145000  1.74108000  1
  Mo  Mo4  1  3.67088000  7.23373000  -0.01710190  1
  Mo  Mo5  1  5.32467000  1.87989000  -0.13296400  1
  Mo  Mo6  1  5.36882000  7.41970000  1.63528000  1
  Mo  Mo7  1  3.75027000  1.79639000  1.87695000  1
  Mo  Mo8  1  0.03451480  3.65981000  -0.06469110  1
  Mo  Mo9  1  1.75821000  5.51348000  3.82562000  1
  Mo  Mo10  1  1.80051000  3.62562000  1.73307000  1
  Mo  Mo11  1  7.26705000  5.59185000  1.95100000  1
  Mo  Mo12  1  3.56139000  3.77935000  3.65252000  1
  Mo  Mo13  1  5.58583000  5.45822000  3.70691000  1
  Mo  Mo14  1  5.57916000  3.56498000  1.82242000  1
  Mo  Mo15  1  3.58399000  5.37606000  1.73773000  1
