# generated using pymatgen
data_Mo
_symmetry_space_group_name_H-M   'P 1'
_cell_length_a   7.33357816
_cell_length_b   7.33357816
_cell_length_c   3.66678905
_cell_angle_alpha   90.00000000
_cell_angle_beta   90.00000000
_cell_angle_gamma   90.00000000
_symmetry_Int_Tables_number   1
_chemical_formula_structural   Mo
_chemical_formula_sum   Mo16
_cell_volume   197.20493385
_cell_formula_units_Z   16
loop_
 _symmetry_equiv_pos_site_id
 _symmetry_equiv_pos_as_xyz
  1  'x, y, z'
loop_
 _atom_site_type_symbol
 _atom_site_label
 _atom_site_symmetry_multiplicity
 _atom_site_fract_x
 _atom_site_fract_y
 _atom_site_fract_z
 _atom_site_occupancy
  Mo  Mo0  1  0.06126640  7.35118000  -0.10052200  1
  Mo  Mo1  1  1.88662000  1.92139000  3.62123000  1
  Mo  Mo2  1  1.74022000  0.05832320  1.81020000  1
  Mo  Mo3  1  7.13358000  1.67713000  1.82629000  1
  Mo  Mo4  1  3.55517000  7.38931000  -0.03922100  1
  Mo  Mo5  1  5.48264000  1.92495000  -0.00401703  1
  Mo  Mo6  1  5.59563000  7.16583000  1.63032000  1
  Mo  Mo7  1  3.70140000  1.86818000  1.87936000  1
  Mo  Mo8  1  0.06955350  3.43198000  0.14457500  1
  Mo  Mo9  1  1.87771000  5.46330000  3.64206000  1
  Mo  Mo10  1  1.66856000  3.48649000  1.68699000  1
  Mo  Mo11  1  7.17576000  5.52772000  1.83495000  1
  Mo  Mo12  1  3.68783000  3.81973000  3.78462000  1
  Mo  Mo13  1  5.41974000  5.32043000  3.66038000  1
  Mo  Mo14  1  5.50631000  3.63481000  1.99122000  1
  Mo  Mo15  1  3.66199000  5.51682000  1.74357000  1
