# generated using pymatgen
data_Mo
_symmetry_space_group_name_H-M   'P 1'
_cell_length_a   7.33357816
_cell_length_b   7.33357816
_cell_length_c   3.66678905
_cell_angle_alpha   90.00000000
_cell_angle_beta   90.00000000
_cell_angle_gamma   90.00000000
_symmetry_Int_Tables_number   1
_chemical_formula_structural   Mo
_chemical_formula_sum   Mo16
_cell_volume   197.20493385
_cell_formula_units_Z   16
loop_
 _symmetry_equiv_pos_site_id
 _symmetry_equiv_pos_as_xyz
  1  'x, y, z'
loop_
 _atom_site_type_symbol
 _atom_site_label
 _atom_site_symmetry_multiplicity
 _atom_site_fract_x
 _atom_site_fract_y
 _atom_site_fract_z
 _atom_site_occupancy
  Mo  Mo0  1  -0.11566000  7.26503000  -0.06230650  1
  Mo  Mo1  1  1.91538000  1.71313000  3.60795000  1
  Mo  Mo2  1  1.94317000  0.07369380  1.78877000  1
  Mo  Mo3  1  7.15999000  1.82087000  1.80882000  1
  Mo  Mo4  1  3.61700000  7.32462000  -0.04609560  1
  Mo  Mo5  1  5.52220000  1.85405000  -0.13908300  1
  Mo  Mo6  1  5.46897000  7.25624000  1.69642000  1
  Mo  Mo7  1  3.68036000  1.91096000  1.79615000  1
  Mo  Mo8  1  -0.08925040  3.73408000  0.06622870  1
  Mo  Mo9  1  1.77624000  5.21916000  3.76346000  1
  Mo  Mo10  1  1.66364000  3.51547000  1.89803000  1
  Mo  Mo11  1  7.37414000  5.59683000  1.84345000  1
  Mo  Mo12  1  3.68314000  3.69835000  3.74130000  1
  Mo  Mo13  1  5.36522000  5.37472000  3.64524000  1
  Mo  Mo14  1  5.61369000  3.59184000  1.82361000  1
  Mo  Mo15  1  3.64576000  5.60852000  1.88006000  1
