# generated using pymatgen
data_Mo
_symmetry_space_group_name_H-M   'P 1'
_cell_length_a   7.33357816
_cell_length_b   7.33357816
_cell_length_c   3.66678905
_cell_angle_alpha   90.00000000
_cell_angle_beta   90.00000000
_cell_angle_gamma   90.00000000
_symmetry_Int_Tables_number   1
_chemical_formula_structural   Mo
_chemical_formula_sum   Mo16
_cell_volume   197.20493385
_cell_formula_units_Z   16
loop_
 _symmetry_equiv_pos_site_id
 _symmetry_equiv_pos_as_xyz
  1  'x, y, z'
loop_
 _atom_site_type_symbol
 _atom_site_label
 _atom_site_symmetry_multiplicity
 _atom_site_fract_x
 _atom_site_fract_y
 _atom_site_fract_z
 _atom_site_occupancy
  Mo  Mo0  1  0.02698400  7.43190000  -0.06860070  1
  Mo  Mo1  1  1.77903000  1.90379000  3.60390000  1
  Mo  Mo2  1  1.79338000  -0.05200100  1.74814000  1
  Mo  Mo3  1  7.42761000  1.86243000  1.79201000  1
  Mo  Mo4  1  3.66416000  7.13885000  0.06456760  1
  Mo  Mo5  1  5.37753000  1.74747000  -0.03674340  1
  Mo  Mo6  1  5.37572000  7.21777000  2.00023000  1
  Mo  Mo7  1  3.66210000  1.62719000  1.77769000  1
  Mo  Mo8  1  -0.06414700  3.56424000  -0.09825720  1
  Mo  Mo9  1  1.82446000  5.35972000  3.77008000  1
  Mo  Mo10  1  1.76322000  3.59591000  1.65222000  1
  Mo  Mo11  1  7.38192000  5.59983000  1.95609000  1
  Mo  Mo12  1  3.67758000  3.72814000  3.59470000  1
  Mo  Mo13  1  5.48116000  5.60882000  3.73523000  1
  Mo  Mo14  1  5.43383000  3.78461000  1.73920000  1
  Mo  Mo15  1  3.61945000  5.43890000  1.88156000  1
