# generated using pymatgen
data_Mo
_symmetry_space_group_name_H-M   'P 1'
_cell_length_a   7.33357816
_cell_length_b   7.33357816
_cell_length_c   3.66678905
_cell_angle_alpha   90.00000000
_cell_angle_beta   90.00000000
_cell_angle_gamma   90.00000000
_symmetry_Int_Tables_number   1
_chemical_formula_structural   Mo
_chemical_formula_sum   Mo16
_cell_volume   197.20493385
_cell_formula_units_Z   16
loop_
 _symmetry_equiv_pos_site_id
 _symmetry_equiv_pos_as_xyz
  1  'x, y, z'
loop_
 _atom_site_type_symbol
 _atom_site_label
 _atom_site_symmetry_multiplicity
 _atom_site_fract_x
 _atom_site_fract_y
 _atom_site_fract_z
 _atom_site_occupancy
  Mo  Mo0  1  0.18377600  7.25387000  0.11328400  1
  Mo  Mo1  1  1.68793000  1.93816000  3.57462000  1
  Mo  Mo2  1  1.84239000  0.08071120  1.91333000  1
  Mo  Mo3  1  7.10760000  1.79391000  1.78690000  1
  Mo  Mo4  1  3.56934000  7.19265000  0.06764250  1
  Mo  Mo5  1  5.46607000  1.92154000  -0.13098600  1
  Mo  Mo6  1  5.23239000  7.42776000  1.70920000  1
  Mo  Mo7  1  3.55528000  1.75629000  1.68704000  1
  Mo  Mo8  1  -0.05677450  3.65705000  -0.16116900  1
  Mo  Mo9  1  1.80382000  5.40765000  3.71902000  1
  Mo  Mo10  1  1.94766000  3.64916000  1.92359000  1
  Mo  Mo11  1  7.33141000  5.44900000  1.88298000  1
  Mo  Mo12  1  3.71787000  3.54481000  3.69420000  1
  Mo  Mo13  1  5.78531000  5.55614000  3.58320000  1
  Mo  Mo14  1  5.38745000  3.54759000  1.77252000  1
  Mo  Mo15  1  3.66248000  5.38131000  1.97663000  1
