# generated using pymatgen
data_Mo
_symmetry_space_group_name_H-M   'P 1'
_cell_length_a   7.29789726
_cell_length_b   7.29789726
_cell_length_c   3.64894867
_cell_angle_alpha   90.00000000
_cell_angle_beta   90.00000000
_cell_angle_gamma   90.00000000
_symmetry_Int_Tables_number   1
_chemical_formula_structural   Mo
_chemical_formula_sum   Mo16
_cell_volume   194.34046797
_cell_formula_units_Z   16
loop_
 _symmetry_equiv_pos_site_id
 _symmetry_equiv_pos_as_xyz
  1  'x, y, z'
loop_
 _atom_site_type_symbol
 _atom_site_label
 _atom_site_symmetry_multiplicity
 _atom_site_fract_x
 _atom_site_fract_y
 _atom_site_fract_z
 _atom_site_occupancy
  Mo  Mo0  1  7.33396000  -0.17131100  -0.01159760  1
  Mo  Mo1  1  1.72503000  1.77271000  -0.00371521  1
  Mo  Mo2  1  1.82415000  7.29613000  1.84255000  1
  Mo  Mo3  1  7.34804000  1.81812000  1.90823000  1
  Mo  Mo4  1  3.76741000  7.29429000  3.68852000  1
  Mo  Mo5  1  5.51393000  1.94953000  -0.07312670  1
  Mo  Mo6  1  5.57281000  7.29235000  1.77739000  1
  Mo  Mo7  1  3.65416000  1.72345000  1.78519000  1
  Mo  Mo8  1  7.20366000  3.61723000  3.74116000  1
  Mo  Mo9  1  1.83532000  5.49305000  -0.05887770  1
  Mo  Mo10  1  1.81482000  3.66259000  1.82909000  1
  Mo  Mo11  1  7.38351000  5.27547000  1.84488000  1
  Mo  Mo12  1  3.50522000  3.66068000  0.00945952  1
  Mo  Mo13  1  5.39442000  5.51693000  3.56495000  1
  Mo  Mo14  1  5.26851000  3.67687000  1.71206000  1
  Mo  Mo15  1  3.67486000  5.64382000  1.90690000  1
