# generated using pymatgen
data_Mo
_symmetry_space_group_name_H-M   'P 1'
_cell_length_a   7.33357816
_cell_length_b   7.33357816
_cell_length_c   3.66678905
_cell_angle_alpha   90.00000000
_cell_angle_beta   90.00000000
_cell_angle_gamma   90.00000000
_symmetry_Int_Tables_number   1
_chemical_formula_structural   Mo
_chemical_formula_sum   Mo16
_cell_volume   197.20493385
_cell_formula_units_Z   16
loop_
 _symmetry_equiv_pos_site_id
 _symmetry_equiv_pos_as_xyz
  1  'x, y, z'
loop_
 _atom_site_type_symbol
 _atom_site_label
 _atom_site_symmetry_multiplicity
 _atom_site_fract_x
 _atom_site_fract_y
 _atom_site_fract_z
 _atom_site_occupancy
  Mo  Mo0  1  0.03112970  7.30888000  -0.09114250  1
  Mo  Mo1  1  1.78238000  1.75952000  3.73470000  1
  Mo  Mo2  1  1.93562000  -0.05161410  1.68236000  1
  Mo  Mo3  1  7.32241000  1.55230000  1.86938000  1
  Mo  Mo4  1  3.67564000  7.49333000  -0.08672080  1
  Mo  Mo5  1  5.47508000  1.81161000  0.28480400  1
  Mo  Mo6  1  5.37731000  7.34287000  1.81404000  1
  Mo  Mo7  1  3.76364000  1.83659000  1.86517000  1
  Mo  Mo8  1  -0.00100770  3.80864000  0.18473800  1
  Mo  Mo9  1  1.98074000  5.38313000  3.43566000  1
  Mo  Mo10  1  1.78055000  3.49491000  1.86061000  1
  Mo  Mo11  1  7.05280000  5.49593000  1.75254000  1
  Mo  Mo12  1  3.62911000  3.55096000  3.62954000  1
  Mo  Mo13  1  5.39306000  5.66261000  3.67327000  1
  Mo  Mo14  1  5.44032000  3.65849000  1.77079000  1
  Mo  Mo15  1  3.58521000  5.44943000  1.73226000  1
