# generated using pymatgen
data_Mo
_symmetry_space_group_name_H-M   'P 1'
_cell_length_a   7.33357816
_cell_length_b   7.33357816
_cell_length_c   3.66678905
_cell_angle_alpha   90.00000000
_cell_angle_beta   90.00000000
_cell_angle_gamma   90.00000000
_symmetry_Int_Tables_number   1
_chemical_formula_structural   Mo
_chemical_formula_sum   Mo16
_cell_volume   197.20493385
_cell_formula_units_Z   16
loop_
 _symmetry_equiv_pos_site_id
 _symmetry_equiv_pos_as_xyz
  1  'x, y, z'
loop_
 _atom_site_type_symbol
 _atom_site_label
 _atom_site_symmetry_multiplicity
 _atom_site_fract_x
 _atom_site_fract_y
 _atom_site_fract_z
 _atom_site_occupancy
  Mo  Mo0  1  -0.06115020  7.51132000  -0.01938430  1
  Mo  Mo1  1  2.02598000  1.83542000  3.77598000  1
  Mo  Mo2  1  1.90560000  -0.24235500  1.88456000  1
  Mo  Mo3  1  7.11060000  1.94594000  1.73442000  1
  Mo  Mo4  1  3.53313000  7.16154000  0.12300400  1
  Mo  Mo5  1  5.49346000  1.83863000  0.02393310  1
  Mo  Mo6  1  5.56878000  7.29482000  1.80541000  1
  Mo  Mo7  1  3.73258000  1.90634000  1.89273000  1
  Mo  Mo8  1  0.00603708  3.52643000  -0.12887100  1
  Mo  Mo9  1  1.68260000  5.42727000  3.75641000  1
  Mo  Mo10  1  1.77971000  3.70618000  1.69083000  1
  Mo  Mo11  1  7.12827000  5.49583000  1.77293000  1
  Mo  Mo12  1  3.67016000  3.63448000  3.65155000  1
  Mo  Mo13  1  5.38153000  5.55669000  3.64679000  1
  Mo  Mo14  1  5.56111000  3.69905000  1.73511000  1
  Mo  Mo15  1  3.70561000  5.25999000  1.76660000  1
