# generated using pymatgen
data_Mo
_symmetry_space_group_name_H-M   'P 1'
_cell_length_a   7.33357816
_cell_length_b   7.33357816
_cell_length_c   3.66678905
_cell_angle_alpha   90.00000000
_cell_angle_beta   90.00000000
_cell_angle_gamma   90.00000000
_symmetry_Int_Tables_number   1
_chemical_formula_structural   Mo
_chemical_formula_sum   Mo16
_cell_volume   197.20493385
_cell_formula_units_Z   16
loop_
 _symmetry_equiv_pos_site_id
 _symmetry_equiv_pos_as_xyz
  1  'x, y, z'
loop_
 _atom_site_type_symbol
 _atom_site_label
 _atom_site_symmetry_multiplicity
 _atom_site_fract_x
 _atom_site_fract_y
 _atom_site_fract_z
 _atom_site_occupancy
  Mo  Mo0  1  0.12934600  7.39802000  0.01305870  1
  Mo  Mo1  1  1.83872000  1.97174000  3.66798000  1
  Mo  Mo2  1  1.81471000  -0.23017600  1.85310000  1
  Mo  Mo3  1  7.21665000  1.79731000  1.78160000  1
  Mo  Mo4  1  3.48270000  7.47559000  -0.04890140  1
  Mo  Mo5  1  5.38406000  1.64119000  -0.11220800  1
  Mo  Mo6  1  5.68893000  7.31185000  1.85551000  1
  Mo  Mo7  1  3.56226000  1.65448000  1.76043000  1
  Mo  Mo8  1  -0.32854900  3.54181000  0.03863190  1
  Mo  Mo9  1  1.88238000  5.33200000  3.59534000  1
  Mo  Mo10  1  1.82617000  3.73534000  1.80502000  1
  Mo  Mo11  1  7.28128000  5.55708000  1.83912000  1
  Mo  Mo12  1  3.69209000  3.55755000  3.68190000  1
  Mo  Mo13  1  5.55948000  5.61783000  3.70558000  1
  Mo  Mo14  1  5.37156000  3.65499000  1.71574000  1
  Mo  Mo15  1  3.82220000  5.54097000  1.96009000  1
