# generated using pymatgen
data_Mo
_symmetry_space_group_name_H-M   'P 1'
_cell_length_a   7.33357816
_cell_length_b   7.33357816
_cell_length_c   3.66678905
_cell_angle_alpha   90.00000000
_cell_angle_beta   90.00000000
_cell_angle_gamma   90.00000000
_symmetry_Int_Tables_number   1
_chemical_formula_structural   Mo
_chemical_formula_sum   Mo16
_cell_volume   197.20493385
_cell_formula_units_Z   16
loop_
 _symmetry_equiv_pos_site_id
 _symmetry_equiv_pos_as_xyz
  1  'x, y, z'
loop_
 _atom_site_type_symbol
 _atom_site_label
 _atom_site_symmetry_multiplicity
 _atom_site_fract_x
 _atom_site_fract_y
 _atom_site_fract_z
 _atom_site_occupancy
  Mo  Mo0  1  -0.06516850  7.22666000  0.02451680  1
  Mo  Mo1  1  1.53012000  1.82211000  3.71941000  1
  Mo  Mo2  1  1.80219000  -0.12571900  1.88752000  1
  Mo  Mo3  1  7.39038000  1.71588000  1.85007000  1
  Mo  Mo4  1  3.61026000  7.36243000  0.04983770  1
  Mo  Mo5  1  5.35489000  1.75181000  -0.30641400  1
  Mo  Mo6  1  5.40045000  7.26631000  1.74389000  1
  Mo  Mo7  1  3.54939000  1.99464000  1.77174000  1
  Mo  Mo8  1  -0.18218200  3.69868000  -0.03851260  1
  Mo  Mo9  1  1.92674000  5.52674000  3.72976000  1
  Mo  Mo10  1  1.69000000  3.69347000  1.93208000  1
  Mo  Mo11  1  7.39284000  5.47469000  1.79907000  1
  Mo  Mo12  1  3.74456000  3.61385000  3.64840000  1
  Mo  Mo13  1  5.67866000  5.44398000  3.59328000  1
  Mo  Mo14  1  5.73457000  3.53750000  1.79083000  1
  Mo  Mo15  1  3.66628000  5.55456000  1.91654000  1
