# generated using pymatgen
data_Mo
_symmetry_space_group_name_H-M   'P 1'
_cell_length_a   7.33357816
_cell_length_b   7.33357816
_cell_length_c   3.66678905
_cell_angle_alpha   90.00000000
_cell_angle_beta   90.00000000
_cell_angle_gamma   90.00000000
_symmetry_Int_Tables_number   1
_chemical_formula_structural   Mo
_chemical_formula_sum   Mo16
_cell_volume   197.20493385
_cell_formula_units_Z   16
loop_
 _symmetry_equiv_pos_site_id
 _symmetry_equiv_pos_as_xyz
  1  'x, y, z'
loop_
 _atom_site_type_symbol
 _atom_site_label
 _atom_site_symmetry_multiplicity
 _atom_site_fract_x
 _atom_site_fract_y
 _atom_site_fract_z
 _atom_site_occupancy
  Mo  Mo0  1  0.23546100  7.33616000  0.07333630  1
  Mo  Mo1  1  1.93115000  1.88818000  3.51500000  1
  Mo  Mo2  1  1.85869000  -0.08123350  1.80977000  1
  Mo  Mo3  1  7.49488000  1.85047000  1.78750000  1
  Mo  Mo4  1  3.73224000  7.35200000  0.05991220  1
  Mo  Mo5  1  5.35479000  1.62993000  0.03740640  1
  Mo  Mo6  1  5.59345000  7.34690000  1.89647000  1
  Mo  Mo7  1  3.54667000  1.73904000  1.85665000  1
  Mo  Mo8  1  -0.13754600  3.57962000  0.07280390  1
  Mo  Mo9  1  1.81828000  5.51858000  3.48965000  1
  Mo  Mo10  1  1.67599000  3.69821000  1.84333000  1
  Mo  Mo11  1  7.34155000  5.34892000  1.80391000  1
  Mo  Mo12  1  3.53202000  3.57128000  3.66781000  1
  Mo  Mo13  1  5.52875000  5.69139000  3.73235000  1
  Mo  Mo14  1  5.27290000  3.63386000  1.86299000  1
  Mo  Mo15  1  3.44471000  5.45428000  1.60312000  1
