# generated using pymatgen
data_Mo
_symmetry_space_group_name_H-M   'P 1'
_cell_length_a   7.33357816
_cell_length_b   7.33357816
_cell_length_c   3.66678905
_cell_angle_alpha   90.00000000
_cell_angle_beta   90.00000000
_cell_angle_gamma   90.00000000
_symmetry_Int_Tables_number   1
_chemical_formula_structural   Mo
_chemical_formula_sum   Mo16
_cell_volume   197.20493385
_cell_formula_units_Z   16
loop_
 _symmetry_equiv_pos_site_id
 _symmetry_equiv_pos_as_xyz
  1  'x, y, z'
loop_
 _atom_site_type_symbol
 _atom_site_label
 _atom_site_symmetry_multiplicity
 _atom_site_fract_x
 _atom_site_fract_y
 _atom_site_fract_z
 _atom_site_occupancy
  Mo  Mo0  1  -0.14761700  7.38787000  -0.10035100  1
  Mo  Mo1  1  1.73521000  1.74186000  3.63782000  1
  Mo  Mo2  1  1.83638000  -0.08278240  1.79715000  1
  Mo  Mo3  1  7.28155000  1.79750000  1.74074000  1
  Mo  Mo4  1  3.73190000  7.29307000  0.00986153  1
  Mo  Mo5  1  5.47462000  1.96370000  -0.08521410  1
  Mo  Mo6  1  5.58970000  7.02420000  1.90032000  1
  Mo  Mo7  1  3.57844000  1.91838000  1.76826000  1
  Mo  Mo8  1  -0.00299162  3.70418000  0.08684930  1
  Mo  Mo9  1  1.93644000  5.64588000  3.70995000  1
  Mo  Mo10  1  1.72603000  3.73121000  1.90363000  1
  Mo  Mo11  1  7.41571000  5.41994000  1.86815000  1
  Mo  Mo12  1  3.51165000  3.52624000  3.56187000  1
  Mo  Mo13  1  5.36031000  5.30947000  3.62769000  1
  Mo  Mo14  1  5.53467000  3.69033000  1.78746000  1
  Mo  Mo15  1  3.66200000  5.48653000  1.89781000  1
