# generated using pymatgen
data_Mo
_symmetry_space_group_name_H-M   'P 1'
_cell_length_a   7.33357816
_cell_length_b   7.33357816
_cell_length_c   3.66678905
_cell_angle_alpha   90.00000000
_cell_angle_beta   90.00000000
_cell_angle_gamma   90.00000000
_symmetry_Int_Tables_number   1
_chemical_formula_structural   Mo
_chemical_formula_sum   Mo16
_cell_volume   197.20493385
_cell_formula_units_Z   16
loop_
 _symmetry_equiv_pos_site_id
 _symmetry_equiv_pos_as_xyz
  1  'x, y, z'
loop_
 _atom_site_type_symbol
 _atom_site_label
 _atom_site_symmetry_multiplicity
 _atom_site_fract_x
 _atom_site_fract_y
 _atom_site_fract_z
 _atom_site_occupancy
  Mo  Mo0  1  -0.10816300  7.22943000  0.03945600  1
  Mo  Mo1  1  1.80117000  1.77456000  3.57150000  1
  Mo  Mo2  1  1.70440000  0.03898700  1.84475000  1
  Mo  Mo3  1  7.45712000  1.63027000  1.86916000  1
  Mo  Mo4  1  3.83790000  7.22247000  0.03488130  1
  Mo  Mo5  1  5.33097000  2.13089000  0.04730170  1
  Mo  Mo6  1  5.48989000  7.29375000  1.79902000  1
  Mo  Mo7  1  3.50931000  1.69009000  1.85371000  1
  Mo  Mo8  1  -0.02480720  3.57477000  -0.00341366  1
  Mo  Mo9  1  1.89464000  5.63196000  3.70344000  1
  Mo  Mo10  1  1.82186000  3.69523000  1.74823000  1
  Mo  Mo11  1  7.34236000  5.32017000  1.74437000  1
  Mo  Mo12  1  3.47285000  3.69332000  3.59180000  1
  Mo  Mo13  1  5.53282000  5.50695000  3.53545000  1
  Mo  Mo14  1  5.50526000  3.56471000  1.88175000  1
  Mo  Mo15  1  3.65641000  5.56003000  1.85058000  1
