# generated using pymatgen
data_Mo
_symmetry_space_group_name_H-M   'P 1'
_cell_length_a   7.33357816
_cell_length_b   7.33357816
_cell_length_c   3.66678905
_cell_angle_alpha   90.00000000
_cell_angle_beta   90.00000000
_cell_angle_gamma   90.00000000
_symmetry_Int_Tables_number   1
_chemical_formula_structural   Mo
_chemical_formula_sum   Mo16
_cell_volume   197.20493385
_cell_formula_units_Z   16
loop_
 _symmetry_equiv_pos_site_id
 _symmetry_equiv_pos_as_xyz
  1  'x, y, z'
loop_
 _atom_site_type_symbol
 _atom_site_label
 _atom_site_symmetry_multiplicity
 _atom_site_fract_x
 _atom_site_fract_y
 _atom_site_fract_z
 _atom_site_occupancy
  Mo  Mo0  1  0.02884240  7.31758000  -0.17054600  1
  Mo  Mo1  1  1.73445000  1.87673000  3.54320000  1
  Mo  Mo2  1  1.74948000  -0.05811130  1.68066000  1
  Mo  Mo3  1  7.37205000  2.01769000  1.85867000  1
  Mo  Mo4  1  3.57512000  7.32871000  -0.00727853  1
  Mo  Mo5  1  5.58331000  1.72676000  0.07442450  1
  Mo  Mo6  1  5.39778000  7.38949000  1.83080000  1
  Mo  Mo7  1  3.66572000  1.95857000  1.89636000  1
  Mo  Mo8  1  -0.18716900  3.61093000  0.06767090  1
  Mo  Mo9  1  1.92625000  5.31321000  3.53968000  1
  Mo  Mo10  1  1.99203000  3.59403000  1.87674000  1
  Mo  Mo11  1  7.22242000  5.40464000  2.01542000  1
  Mo  Mo12  1  3.70075000  3.55599000  3.66739000  1
  Mo  Mo13  1  5.38542000  5.63997000  3.44313000  1
  Mo  Mo14  1  5.37453000  3.61122000  2.07495000  1
  Mo  Mo15  1  3.70303000  5.27016000  1.72073000  1
