# generated using pymatgen
data_Mo
_symmetry_space_group_name_H-M   'P 1'
_cell_length_a   7.29789726
_cell_length_b   7.29789726
_cell_length_c   3.64894867
_cell_angle_alpha   90.00000000
_cell_angle_beta   90.00000000
_cell_angle_gamma   90.00000000
_symmetry_Int_Tables_number   1
_chemical_formula_structural   Mo
_chemical_formula_sum   Mo16
_cell_volume   194.34046797
_cell_formula_units_Z   16
loop_
 _symmetry_equiv_pos_site_id
 _symmetry_equiv_pos_as_xyz
  1  'x, y, z'
loop_
 _atom_site_type_symbol
 _atom_site_label
 _atom_site_symmetry_multiplicity
 _atom_site_fract_x
 _atom_site_fract_y
 _atom_site_fract_z
 _atom_site_occupancy
  Mo  Mo0  1  7.13196000  -0.07768590  0.03448700  1
  Mo  Mo1  1  1.84615000  1.57458000  -0.11097600  1
  Mo  Mo2  1  1.86938000  7.18067000  1.82457000  1
  Mo  Mo3  1  7.40605000  1.81562000  1.81216000  1
  Mo  Mo4  1  3.67333000  7.16711000  3.58119000  1
  Mo  Mo5  1  5.38005000  1.85902000  0.01710430  1
  Mo  Mo6  1  5.33851000  7.46112000  1.74273000  1
  Mo  Mo7  1  3.41223000  1.92201000  1.83568000  1
  Mo  Mo8  1  7.32515000  3.62277000  3.58634000  1
  Mo  Mo9  1  1.76982000  5.46010000  0.12297900  1
  Mo  Mo10  1  1.94479000  3.70723000  1.88951000  1
  Mo  Mo11  1  7.24733000  5.55081000  1.86731000  1
  Mo  Mo12  1  3.64322000  3.83754000  0.09201830  1
  Mo  Mo13  1  5.61750000  5.40513000  3.62270000  1
  Mo  Mo14  1  5.52090000  3.53687000  1.78731000  1
  Mo  Mo15  1  3.69340000  5.49902000  1.75794000  1
