# generated using pymatgen
data_Mo
_symmetry_space_group_name_H-M   'P 1'
_cell_length_a   7.33357816
_cell_length_b   7.33357816
_cell_length_c   3.66678905
_cell_angle_alpha   90.00000000
_cell_angle_beta   90.00000000
_cell_angle_gamma   90.00000000
_symmetry_Int_Tables_number   1
_chemical_formula_structural   Mo
_chemical_formula_sum   Mo16
_cell_volume   197.20493385
_cell_formula_units_Z   16
loop_
 _symmetry_equiv_pos_site_id
 _symmetry_equiv_pos_as_xyz
  1  'x, y, z'
loop_
 _atom_site_type_symbol
 _atom_site_label
 _atom_site_symmetry_multiplicity
 _atom_site_fract_x
 _atom_site_fract_y
 _atom_site_fract_z
 _atom_site_occupancy
  Mo  Mo0  1  0.05825440  7.41982000  -0.10137900  1
  Mo  Mo1  1  1.92879000  2.08152000  3.57698000  1
  Mo  Mo2  1  1.65158000  -0.11770500  1.87575000  1
  Mo  Mo3  1  7.47771000  1.83837000  1.72431000  1
  Mo  Mo4  1  3.47850000  7.31291000  -0.02788890  1
  Mo  Mo5  1  5.45880000  1.85474000  -0.01934280  1
  Mo  Mo6  1  5.52457000  7.30769000  1.86920000  1
  Mo  Mo7  1  3.74310000  1.79034000  1.89926000  1
  Mo  Mo8  1  -0.00012382  3.65111000  0.05848030  1
  Mo  Mo9  1  1.97448000  5.26039000  3.71710000  1
  Mo  Mo10  1  1.84795000  3.58358000  1.85494000  1
  Mo  Mo11  1  7.06662000  5.44854000  1.92285000  1
  Mo  Mo12  1  3.67354000  3.51334000  3.57968000  1
  Mo  Mo13  1  5.39715000  5.52888000  3.59116000  1
  Mo  Mo14  1  5.45221000  3.64720000  1.83440000  1
  Mo  Mo15  1  3.49087000  5.43686000  1.75650000  1
