# generated using pymatgen
data_Mo
_symmetry_space_group_name_H-M   'P 1'
_cell_length_a   7.33357816
_cell_length_b   7.33357816
_cell_length_c   3.66678905
_cell_angle_alpha   90.00000000
_cell_angle_beta   90.00000000
_cell_angle_gamma   90.00000000
_symmetry_Int_Tables_number   1
_chemical_formula_structural   Mo
_chemical_formula_sum   Mo16
_cell_volume   197.20493385
_cell_formula_units_Z   16
loop_
 _symmetry_equiv_pos_site_id
 _symmetry_equiv_pos_as_xyz
  1  'x, y, z'
loop_
 _atom_site_type_symbol
 _atom_site_label
 _atom_site_symmetry_multiplicity
 _atom_site_fract_x
 _atom_site_fract_y
 _atom_site_fract_z
 _atom_site_occupancy
  Mo  Mo0  1  -0.04958390  7.63110000  -0.08944150  1
  Mo  Mo1  1  1.84035000  1.71337000  3.70413000  1
  Mo  Mo2  1  1.85768000  -0.14541300  1.90299000  1
  Mo  Mo3  1  7.41005000  1.85125000  1.81509000  1
  Mo  Mo4  1  3.65298000  7.42797000  -0.07657490  1
  Mo  Mo5  1  5.63746000  1.91437000  0.07650820  1
  Mo  Mo6  1  5.32070000  7.13648000  1.67803000  1
  Mo  Mo7  1  3.70581000  1.73280000  1.91488000  1
  Mo  Mo8  1  0.14479700  3.57741000  0.01605390  1
  Mo  Mo9  1  1.74473000  5.56325000  3.65535000  1
  Mo  Mo10  1  1.91166000  3.60804000  1.80907000  1
  Mo  Mo11  1  7.14019000  5.66416000  1.70586000  1
  Mo  Mo12  1  3.50549000  3.65206000  3.68377000  1
  Mo  Mo13  1  5.45206000  5.46376000  3.47930000  1
  Mo  Mo14  1  5.39708000  3.47487000  1.91875000  1
  Mo  Mo15  1  3.55253000  5.29211000  1.91825000  1
