# generated using pymatgen
data_Mo
_symmetry_space_group_name_H-M   'P 1'
_cell_length_a   7.33357816
_cell_length_b   7.33357816
_cell_length_c   3.66678905
_cell_angle_alpha   90.00000000
_cell_angle_beta   90.00000000
_cell_angle_gamma   90.00000000
_symmetry_Int_Tables_number   1
_chemical_formula_structural   Mo
_chemical_formula_sum   Mo16
_cell_volume   197.20493385
_cell_formula_units_Z   16
loop_
 _symmetry_equiv_pos_site_id
 _symmetry_equiv_pos_as_xyz
  1  'x, y, z'
loop_
 _atom_site_type_symbol
 _atom_site_label
 _atom_site_symmetry_multiplicity
 _atom_site_fract_x
 _atom_site_fract_y
 _atom_site_fract_z
 _atom_site_occupancy
  Mo  Mo0  1  -0.15074500  7.23253000  -0.06259510  1
  Mo  Mo1  1  1.73978000  1.71213000  3.62994000  1
  Mo  Mo2  1  1.58290000  -0.14066200  1.85299000  1
  Mo  Mo3  1  7.31476000  1.80107000  1.61161000  1
  Mo  Mo4  1  3.53180000  7.13329000  0.01598990  1
  Mo  Mo5  1  5.57729000  1.80619000  0.02902640  1
  Mo  Mo6  1  5.48725000  7.49262000  1.79814000  1
  Mo  Mo7  1  3.76304000  1.74975000  1.89930000  1
  Mo  Mo8  1  -0.00639220  3.76755000  0.01390500  1
  Mo  Mo9  1  1.91405000  5.55575000  3.59227000  1
  Mo  Mo10  1  1.78339000  3.59133000  1.76857000  1
  Mo  Mo11  1  7.23335000  5.56022000  1.80686000  1
  Mo  Mo12  1  3.75371000  3.72222000  3.82782000  1
  Mo  Mo13  1  5.42858000  5.66560000  3.69838000  1
  Mo  Mo14  1  5.63768000  3.65293000  1.77877000  1
  Mo  Mo15  1  3.63357000  5.25507000  1.85104000  1
