# generated using pymatgen
data_Mo
_symmetry_space_group_name_H-M   'P 1'
_cell_length_a   7.33357816
_cell_length_b   7.33357816
_cell_length_c   3.66678905
_cell_angle_alpha   90.00000000
_cell_angle_beta   90.00000000
_cell_angle_gamma   90.00000000
_symmetry_Int_Tables_number   1
_chemical_formula_structural   Mo
_chemical_formula_sum   Mo16
_cell_volume   197.20493385
_cell_formula_units_Z   16
loop_
 _symmetry_equiv_pos_site_id
 _symmetry_equiv_pos_as_xyz
  1  'x, y, z'
loop_
 _atom_site_type_symbol
 _atom_site_label
 _atom_site_symmetry_multiplicity
 _atom_site_fract_x
 _atom_site_fract_y
 _atom_site_fract_z
 _atom_site_occupancy
  Mo  Mo0  1  -0.06745120  7.39524000  -0.01344120  1
  Mo  Mo1  1  1.77988000  1.85993000  3.69893000  1
  Mo  Mo2  1  1.63079000  0.00787746  1.66290000  1
  Mo  Mo3  1  7.36691000  1.95895000  1.80161000  1
  Mo  Mo4  1  3.61751000  7.15077000  -0.09662250  1
  Mo  Mo5  1  5.40952000  1.80561000  0.06982910  1
  Mo  Mo6  1  5.72274000  7.41014000  2.03367000  1
  Mo  Mo7  1  3.35066000  1.71497000  1.74980000  1
  Mo  Mo8  1  -0.01692950  3.53649000  -0.07775590  1
  Mo  Mo9  1  1.76713000  5.42528000  3.68920000  1
  Mo  Mo10  1  1.70043000  3.64730000  1.77927000  1
  Mo  Mo11  1  7.55873000  5.59408000  1.82323000  1
  Mo  Mo12  1  3.61186000  3.61622000  3.73471000  1
  Mo  Mo13  1  5.56772000  5.43910000  3.64052000  1
  Mo  Mo14  1  5.43157000  3.58952000  1.84130000  1
  Mo  Mo15  1  3.79295000  5.40610000  1.77485000  1
