# generated using pymatgen
data_Mo
_symmetry_space_group_name_H-M   'P 1'
_cell_length_a   7.33357816
_cell_length_b   7.33357816
_cell_length_c   3.66678905
_cell_angle_alpha   90.00000000
_cell_angle_beta   90.00000000
_cell_angle_gamma   90.00000000
_symmetry_Int_Tables_number   1
_chemical_formula_structural   Mo
_chemical_formula_sum   Mo16
_cell_volume   197.20493385
_cell_formula_units_Z   16
loop_
 _symmetry_equiv_pos_site_id
 _symmetry_equiv_pos_as_xyz
  1  'x, y, z'
loop_
 _atom_site_type_symbol
 _atom_site_label
 _atom_site_symmetry_multiplicity
 _atom_site_fract_x
 _atom_site_fract_y
 _atom_site_fract_z
 _atom_site_occupancy
  Mo  Mo0  1  0.13228300  7.37914000  0.18188400  1
  Mo  Mo1  1  1.67958000  1.82802000  3.57242000  1
  Mo  Mo2  1  1.97054000  -0.00660054  1.90780000  1
  Mo  Mo3  1  7.28649000  1.89835000  2.01107000  1
  Mo  Mo4  1  3.73130000  7.27711000  -0.09458940  1
  Mo  Mo5  1  5.54492000  1.74711000  -0.04948020  1
  Mo  Mo6  1  5.60062000  7.17885000  1.84472000  1
  Mo  Mo7  1  3.42223000  1.79615000  1.82174000  1
  Mo  Mo8  1  -0.08606900  3.56585000  0.02182920  1
  Mo  Mo9  1  1.70841000  5.41408000  3.58675000  1
  Mo  Mo10  1  1.86941000  3.53041000  1.78898000  1
  Mo  Mo11  1  7.32598000  5.43344000  1.90464000  1
  Mo  Mo12  1  3.43353000  3.88730000  3.54287000  1
  Mo  Mo13  1  5.65333000  5.47221000  3.65844000  1
  Mo  Mo14  1  5.24155000  3.55835000  1.66872000  1
  Mo  Mo15  1  3.70991000  5.59781000  1.74421000  1
