# generated using pymatgen
data_Mo
_symmetry_space_group_name_H-M   'P 1'
_cell_length_a   7.33357816
_cell_length_b   7.33357816
_cell_length_c   3.66678905
_cell_angle_alpha   90.00000000
_cell_angle_beta   90.00000000
_cell_angle_gamma   90.00000000
_symmetry_Int_Tables_number   1
_chemical_formula_structural   Mo
_chemical_formula_sum   Mo16
_cell_volume   197.20493385
_cell_formula_units_Z   16
loop_
 _symmetry_equiv_pos_site_id
 _symmetry_equiv_pos_as_xyz
  1  'x, y, z'
loop_
 _atom_site_type_symbol
 _atom_site_label
 _atom_site_symmetry_multiplicity
 _atom_site_fract_x
 _atom_site_fract_y
 _atom_site_fract_z
 _atom_site_occupancy
  Mo  Mo0  1  0.03402430  7.54400000  -0.07110370  1
  Mo  Mo1  1  1.92079000  1.79403000  3.67890000  1
  Mo  Mo2  1  1.91242000  -0.22731900  1.87373000  1
  Mo  Mo3  1  7.31997000  1.95656000  1.73179000  1
  Mo  Mo4  1  3.71577000  7.19065000  -0.08275960  1
  Mo  Mo5  1  5.42097000  1.72359000  0.02885530  1
  Mo  Mo6  1  5.58078000  7.21044000  1.68621000  1
  Mo  Mo7  1  3.68397000  1.74872000  1.89876000  1
  Mo  Mo8  1  -0.12592100  3.55337000  0.08585170  1
  Mo  Mo9  1  1.60646000  5.58214000  3.57121000  1
  Mo  Mo10  1  1.87816000  3.68560000  1.73916000  1
  Mo  Mo11  1  7.31003000  5.50813000  1.92974000  1
  Mo  Mo12  1  3.55104000  3.66679000  3.81339000  1
  Mo  Mo13  1  5.62625000  5.56694000  3.65350000  1
  Mo  Mo14  1  5.40084000  3.68173000  1.86509000  1
  Mo  Mo15  1  3.38845000  5.37221000  1.70968000  1
