# generated using pymatgen
data_Mo
_symmetry_space_group_name_H-M   'P 1'
_cell_length_a   7.33357816
_cell_length_b   7.33357816
_cell_length_c   3.66678905
_cell_angle_alpha   90.00000000
_cell_angle_beta   90.00000000
_cell_angle_gamma   90.00000000
_symmetry_Int_Tables_number   1
_chemical_formula_structural   Mo
_chemical_formula_sum   Mo16
_cell_volume   197.20493385
_cell_formula_units_Z   16
loop_
 _symmetry_equiv_pos_site_id
 _symmetry_equiv_pos_as_xyz
  1  'x, y, z'
loop_
 _atom_site_type_symbol
 _atom_site_label
 _atom_site_symmetry_multiplicity
 _atom_site_fract_x
 _atom_site_fract_y
 _atom_site_fract_z
 _atom_site_occupancy
  Mo  Mo0  1  -0.04305990  7.36197000  0.00965549  1
  Mo  Mo1  1  1.79941000  1.71745000  3.65366000  1
  Mo  Mo2  1  1.83244000  0.08194610  1.76020000  1
  Mo  Mo3  1  7.18008000  1.80855000  1.83317000  1
  Mo  Mo4  1  3.79826000  7.44148000  0.05667200  1
  Mo  Mo5  1  5.51609000  1.73008000  -0.05424510  1
  Mo  Mo6  1  5.40315000  7.39970000  1.80193000  1
  Mo  Mo7  1  3.57247000  1.66686000  1.86365000  1
  Mo  Mo8  1  -0.05683070  3.65980000  0.04401770  1
  Mo  Mo9  1  1.94852000  5.47995000  3.54773000  1
  Mo  Mo10  1  1.72752000  3.54033000  1.76098000  1
  Mo  Mo11  1  7.33547000  5.48154000  1.82293000  1
  Mo  Mo12  1  3.46475000  3.49819000  3.60885000  1
  Mo  Mo13  1  5.61333000  5.48715000  3.68319000  1
  Mo  Mo14  1  5.60005000  3.69665000  1.82989000  1
  Mo  Mo15  1  3.53234000  5.50593000  1.88971000  1
