# generated using pymatgen
data_Mo
_symmetry_space_group_name_H-M   'P 1'
_cell_length_a   7.29789726
_cell_length_b   7.29789726
_cell_length_c   3.64894867
_cell_angle_alpha   90.00000000
_cell_angle_beta   90.00000000
_cell_angle_gamma   90.00000000
_symmetry_Int_Tables_number   1
_chemical_formula_structural   Mo
_chemical_formula_sum   Mo16
_cell_volume   194.34046797
_cell_formula_units_Z   16
loop_
 _symmetry_equiv_pos_site_id
 _symmetry_equiv_pos_as_xyz
  1  'x, y, z'
loop_
 _atom_site_type_symbol
 _atom_site_label
 _atom_site_symmetry_multiplicity
 _atom_site_fract_x
 _atom_site_fract_y
 _atom_site_fract_z
 _atom_site_occupancy
  Mo  Mo0  1  7.21187000  -0.16711500  -0.00639800  1
  Mo  Mo1  1  1.70307000  1.79228000  -0.18395700  1
  Mo  Mo2  1  1.70858000  7.26916000  1.94466000  1
  Mo  Mo3  1  7.40276000  1.92182000  1.80888000  1
  Mo  Mo4  1  3.82930000  7.20439000  3.54606000  1
  Mo  Mo5  1  5.46666000  1.85058000  0.02571530  1
  Mo  Mo6  1  5.52435000  7.56447000  1.84910000  1
  Mo  Mo7  1  3.55099000  1.73393000  1.83446000  1
  Mo  Mo8  1  7.30478000  3.79015000  3.64972000  1
  Mo  Mo9  1  1.95032000  5.47081000  -0.03963960  1
  Mo  Mo10  1  1.83015000  3.70705000  1.79489000  1
  Mo  Mo11  1  7.21653000  5.38987000  1.84540000  1
  Mo  Mo12  1  3.69063000  3.53185000  0.13514500  1
  Mo  Mo13  1  5.33142000  5.42031000  3.64394000  1
  Mo  Mo14  1  5.43199000  3.58783000  1.92457000  1
  Mo  Mo15  1  3.66639000  5.45452000  1.69050000  1
