# generated using pymatgen
data_Mo
_symmetry_space_group_name_H-M   'P 1'
_cell_length_a   7.33357816
_cell_length_b   7.33357816
_cell_length_c   3.66678905
_cell_angle_alpha   90.00000000
_cell_angle_beta   90.00000000
_cell_angle_gamma   90.00000000
_symmetry_Int_Tables_number   1
_chemical_formula_structural   Mo
_chemical_formula_sum   Mo16
_cell_volume   197.20493385
_cell_formula_units_Z   16
loop_
 _symmetry_equiv_pos_site_id
 _symmetry_equiv_pos_as_xyz
  1  'x, y, z'
loop_
 _atom_site_type_symbol
 _atom_site_label
 _atom_site_symmetry_multiplicity
 _atom_site_fract_x
 _atom_site_fract_y
 _atom_site_fract_z
 _atom_site_occupancy
  Mo  Mo0  1  -0.08100050  7.23596000  -0.03038970  1
  Mo  Mo1  1  1.78797000  1.75811000  3.64108000  1
  Mo  Mo2  1  1.72648000  -0.08239980  1.91159000  1
  Mo  Mo3  1  7.24885000  1.54812000  1.87560000  1
  Mo  Mo4  1  3.62605000  7.41298000  -0.07297060  1
  Mo  Mo5  1  5.34271000  1.84971000  0.03518950  1
  Mo  Mo6  1  5.26906000  7.37649000  1.63561000  1
  Mo  Mo7  1  3.71158000  1.91296000  1.94283000  1
  Mo  Mo8  1  -0.00038862  3.48520000  -0.10786500  1
  Mo  Mo9  1  1.87878000  5.51113000  3.71716000  1
  Mo  Mo10  1  1.85687000  3.64524000  1.76555000  1
  Mo  Mo11  1  7.31656000  5.53459000  1.87071000  1
  Mo  Mo12  1  3.57717000  3.74692000  3.67683000  1
  Mo  Mo13  1  5.64962000  5.37275000  3.67342000  1
  Mo  Mo14  1  5.57797000  3.66756000  1.85852000  1
  Mo  Mo15  1  3.73572000  5.58225000  1.71915000  1
