# generated using pymatgen
data_Mo
_symmetry_space_group_name_H-M   'P 1'
_cell_length_a   7.33357816
_cell_length_b   7.33357816
_cell_length_c   3.66678905
_cell_angle_alpha   90.00000000
_cell_angle_beta   90.00000000
_cell_angle_gamma   90.00000000
_symmetry_Int_Tables_number   1
_chemical_formula_structural   Mo
_chemical_formula_sum   Mo16
_cell_volume   197.20493385
_cell_formula_units_Z   16
loop_
 _symmetry_equiv_pos_site_id
 _symmetry_equiv_pos_as_xyz
  1  'x, y, z'
loop_
 _atom_site_type_symbol
 _atom_site_label
 _atom_site_symmetry_multiplicity
 _atom_site_fract_x
 _atom_site_fract_y
 _atom_site_fract_z
 _atom_site_occupancy
  Mo  Mo0  1  -0.36312900  7.28425000  -0.03888560  1
  Mo  Mo1  1  1.77851000  1.71184000  3.62744000  1
  Mo  Mo2  1  1.84292000  0.11650700  1.82505000  1
  Mo  Mo3  1  7.29994000  1.73275000  1.73373000  1
  Mo  Mo4  1  3.72772000  7.25044000  -0.03411180  1
  Mo  Mo5  1  5.51579000  1.89036000  -0.13364600  1
  Mo  Mo6  1  5.31271000  7.39403000  1.84187000  1
  Mo  Mo7  1  3.53261000  1.80568000  1.75988000  1
  Mo  Mo8  1  0.12241000  3.64797000  0.10242800  1
  Mo  Mo9  1  1.74243000  5.48838000  3.74436000  1
  Mo  Mo10  1  1.70878000  3.55447000  1.86321000  1
  Mo  Mo11  1  7.39055000  5.70868000  1.77667000  1
  Mo  Mo12  1  3.62158000  3.61352000  3.51022000  1
  Mo  Mo13  1  5.49423000  5.25487000  3.67254000  1
  Mo  Mo14  1  5.74288000  3.68102000  1.93155000  1
  Mo  Mo15  1  3.75408000  5.42281000  1.92972000  1
