# generated using pymatgen
data_Mo
_symmetry_space_group_name_H-M   'P 1'
_cell_length_a   7.33357816
_cell_length_b   7.33357816
_cell_length_c   3.66678905
_cell_angle_alpha   90.00000000
_cell_angle_beta   90.00000000
_cell_angle_gamma   90.00000000
_symmetry_Int_Tables_number   1
_chemical_formula_structural   Mo
_chemical_formula_sum   Mo16
_cell_volume   197.20493385
_cell_formula_units_Z   16
loop_
 _symmetry_equiv_pos_site_id
 _symmetry_equiv_pos_as_xyz
  1  'x, y, z'
loop_
 _atom_site_type_symbol
 _atom_site_label
 _atom_site_symmetry_multiplicity
 _atom_site_fract_x
 _atom_site_fract_y
 _atom_site_fract_z
 _atom_site_occupancy
  Mo  Mo0  1  -0.05436750  7.39311000  0.07423280  1
  Mo  Mo1  1  1.81500000  1.82022000  3.75235000  1
  Mo  Mo2  1  1.63591000  0.03756580  1.91227000  1
  Mo  Mo3  1  7.20083000  1.76200000  1.73301000  1
  Mo  Mo4  1  3.70328000  7.20017000  0.07586730  1
  Mo  Mo5  1  5.41330000  1.87745000  -0.21843800  1
  Mo  Mo6  1  5.51783000  7.31750000  1.78713000  1
  Mo  Mo7  1  3.64873000  1.89810000  1.79338000  1
  Mo  Mo8  1  -0.02167300  3.56906000  0.01657940  1
  Mo  Mo9  1  1.86432000  5.25634000  3.72368000  1
  Mo  Mo10  1  1.85883000  3.66581000  1.80202000  1
  Mo  Mo11  1  7.40393000  5.42942000  1.81727000  1
  Mo  Mo12  1  3.68360000  3.75868000  3.65098000  1
  Mo  Mo13  1  5.56711000  5.57734000  3.53271000  1
  Mo  Mo14  1  5.46914000  3.61482000  1.65094000  1
  Mo  Mo15  1  3.51824000  5.38000000  2.00802000  1
