# generated using pymatgen
data_Mo
_symmetry_space_group_name_H-M   'P 1'
_cell_length_a   7.33357816
_cell_length_b   7.33357816
_cell_length_c   3.66678905
_cell_angle_alpha   90.00000000
_cell_angle_beta   90.00000000
_cell_angle_gamma   90.00000000
_symmetry_Int_Tables_number   1
_chemical_formula_structural   Mo
_chemical_formula_sum   Mo16
_cell_volume   197.20493385
_cell_formula_units_Z   16
loop_
 _symmetry_equiv_pos_site_id
 _symmetry_equiv_pos_as_xyz
  1  'x, y, z'
loop_
 _atom_site_type_symbol
 _atom_site_label
 _atom_site_symmetry_multiplicity
 _atom_site_fract_x
 _atom_site_fract_y
 _atom_site_fract_z
 _atom_site_occupancy
  Mo  Mo0  1  0.13414700  7.26242000  0.02864400  1
  Mo  Mo1  1  1.68599000  1.81335000  3.67110000  1
  Mo  Mo2  1  1.87968000  -0.09701090  1.81158000  1
  Mo  Mo3  1  7.27495000  1.66275000  1.85816000  1
  Mo  Mo4  1  3.59692000  7.57402000  -0.22778200  1
  Mo  Mo5  1  5.56895000  1.78316000  -0.02128190  1
  Mo  Mo6  1  5.34576000  7.35172000  1.89021000  1
  Mo  Mo7  1  3.81683000  1.78120000  1.67446000  1
  Mo  Mo8  1  0.05365900  3.74366000  -0.02429970  1
  Mo  Mo9  1  1.91310000  5.47448000  3.76285000  1
  Mo  Mo10  1  1.71445000  3.55538000  1.94242000  1
  Mo  Mo11  1  7.40568000  5.51751000  1.98672000  1
  Mo  Mo12  1  3.58085000  3.62383000  3.64410000  1
  Mo  Mo13  1  5.32218000  5.57892000  3.63499000  1
  Mo  Mo14  1  5.39167000  3.64028000  1.70486000  1
  Mo  Mo15  1  3.53918000  5.29192000  1.77528000  1
