# generated using pymatgen
data_Mo
_symmetry_space_group_name_H-M   'P 1'
_cell_length_a   7.33357816
_cell_length_b   7.33357816
_cell_length_c   3.66678905
_cell_angle_alpha   90.00000000
_cell_angle_beta   90.00000000
_cell_angle_gamma   90.00000000
_symmetry_Int_Tables_number   1
_chemical_formula_structural   Mo
_chemical_formula_sum   Mo16
_cell_volume   197.20493385
_cell_formula_units_Z   16
loop_
 _symmetry_equiv_pos_site_id
 _symmetry_equiv_pos_as_xyz
  1  'x, y, z'
loop_
 _atom_site_type_symbol
 _atom_site_label
 _atom_site_symmetry_multiplicity
 _atom_site_fract_x
 _atom_site_fract_y
 _atom_site_fract_z
 _atom_site_occupancy
  Mo  Mo0  1  0.05778560  7.35240000  0.02139630  1
  Mo  Mo1  1  1.86042000  1.85417000  3.69811000  1
  Mo  Mo2  1  1.68859000  0.05739450  1.84455000  1
  Mo  Mo3  1  7.20139000  1.80320000  1.78851000  1
  Mo  Mo4  1  3.78811000  7.32671000  0.11214500  1
  Mo  Mo5  1  5.35806000  1.74528000  0.04288560  1
  Mo  Mo6  1  5.59156000  7.45524000  2.03491000  1
  Mo  Mo7  1  3.70602000  1.69389000  1.76829000  1
  Mo  Mo8  1  0.04442880  3.69807000  -0.13615600  1
  Mo  Mo9  1  1.94624000  5.40162000  3.62231000  1
  Mo  Mo10  1  1.68239000  3.64451000  1.85039000  1
  Mo  Mo11  1  7.21777000  5.49524000  1.83488000  1
  Mo  Mo12  1  3.56832000  3.56559000  3.54300000  1
  Mo  Mo13  1  5.50765000  5.42910000  3.55582000  1
  Mo  Mo14  1  5.33045000  3.57801000  1.71984000  1
  Mo  Mo15  1  3.67481000  5.45716000  1.81112000  1
