# generated using pymatgen
data_Mo
_symmetry_space_group_name_H-M   'P 1'
_cell_length_a   7.33357816
_cell_length_b   7.33357816
_cell_length_c   3.66678905
_cell_angle_alpha   90.00000000
_cell_angle_beta   90.00000000
_cell_angle_gamma   90.00000000
_symmetry_Int_Tables_number   1
_chemical_formula_structural   Mo
_chemical_formula_sum   Mo16
_cell_volume   197.20493385
_cell_formula_units_Z   16
loop_
 _symmetry_equiv_pos_site_id
 _symmetry_equiv_pos_as_xyz
  1  'x, y, z'
loop_
 _atom_site_type_symbol
 _atom_site_label
 _atom_site_symmetry_multiplicity
 _atom_site_fract_x
 _atom_site_fract_y
 _atom_site_fract_z
 _atom_site_occupancy
  Mo  Mo0  1  -0.19293600  7.39025000  -0.01669970  1
  Mo  Mo1  1  1.85536000  1.78256000  3.69734000  1
  Mo  Mo2  1  2.01458000  0.20808200  1.98122000  1
  Mo  Mo3  1  7.24468000  1.64689000  1.87586000  1
  Mo  Mo4  1  3.59685000  7.28188000  -0.05666520  1
  Mo  Mo5  1  5.41625000  1.82395000  -0.16157800  1
  Mo  Mo6  1  5.37062000  7.24552000  1.88463000  1
  Mo  Mo7  1  3.88081000  1.86069000  1.79392000  1
  Mo  Mo8  1  0.00936384  3.53574000  -0.07110280  1
  Mo  Mo9  1  1.67494000  5.55820000  3.70561000  1
  Mo  Mo10  1  1.73550000  3.63345000  1.72235000  1
  Mo  Mo11  1  7.13425000  5.57050000  1.87150000  1
  Mo  Mo12  1  3.61988000  3.43677000  3.42606000  1
  Mo  Mo13  1  5.51662000  5.41915000  3.69330000  1
  Mo  Mo14  1  5.66388000  3.66916000  1.92492000  1
  Mo  Mo15  1  3.68336000  5.49478000  1.84134000  1
