# generated using pymatgen
data_Mo
_symmetry_space_group_name_H-M   'P 1'
_cell_length_a   7.33357816
_cell_length_b   7.33357816
_cell_length_c   3.66678905
_cell_angle_alpha   90.00000000
_cell_angle_beta   90.00000000
_cell_angle_gamma   90.00000000
_symmetry_Int_Tables_number   1
_chemical_formula_structural   Mo
_chemical_formula_sum   Mo16
_cell_volume   197.20493385
_cell_formula_units_Z   16
loop_
 _symmetry_equiv_pos_site_id
 _symmetry_equiv_pos_as_xyz
  1  'x, y, z'
loop_
 _atom_site_type_symbol
 _atom_site_label
 _atom_site_symmetry_multiplicity
 _atom_site_fract_x
 _atom_site_fract_y
 _atom_site_fract_z
 _atom_site_occupancy
  Mo  Mo0  1  -0.17590600  7.25983000  -0.08844400  1
  Mo  Mo1  1  1.62041000  1.61372000  3.61881000  1
  Mo  Mo2  1  2.04931000  -0.00441472  1.87824000  1
  Mo  Mo3  1  7.21532000  1.64120000  1.69325000  1
  Mo  Mo4  1  3.78793000  7.46608000  0.13092600  1
  Mo  Mo5  1  5.59756000  1.80581000  -0.10113700  1
  Mo  Mo6  1  5.43507000  7.19385000  1.75082000  1
  Mo  Mo7  1  3.64864000  1.95362000  1.70247000  1
  Mo  Mo8  1  0.14506600  3.60877000  0.11273300  1
  Mo  Mo9  1  1.78522000  5.54824000  3.76338000  1
  Mo  Mo10  1  1.73448000  3.80694000  1.98549000  1
  Mo  Mo11  1  7.25939000  5.39106000  1.77476000  1
  Mo  Mo12  1  3.57264000  3.67219000  3.50184000  1
  Mo  Mo13  1  5.28302000  5.39229000  3.62468000  1
  Mo  Mo14  1  5.65684000  3.80257000  1.83178000  1
  Mo  Mo15  1  3.60901000  5.40584000  1.93239000  1
