# generated using pymatgen
data_Mo
_symmetry_space_group_name_H-M   'P 1'
_cell_length_a   7.33357816
_cell_length_b   7.33357816
_cell_length_c   3.66678905
_cell_angle_alpha   90.00000000
_cell_angle_beta   90.00000000
_cell_angle_gamma   90.00000000
_symmetry_Int_Tables_number   1
_chemical_formula_structural   Mo
_chemical_formula_sum   Mo16
_cell_volume   197.20493385
_cell_formula_units_Z   16
loop_
 _symmetry_equiv_pos_site_id
 _symmetry_equiv_pos_as_xyz
  1  'x, y, z'
loop_
 _atom_site_type_symbol
 _atom_site_label
 _atom_site_symmetry_multiplicity
 _atom_site_fract_x
 _atom_site_fract_y
 _atom_site_fract_z
 _atom_site_occupancy
  Mo  Mo0  1  -0.13539100  7.21991000  0.14046600  1
  Mo  Mo1  1  1.79137000  1.76156000  3.55334000  1
  Mo  Mo2  1  1.95299000  0.05355350  1.78736000  1
  Mo  Mo3  1  7.28122000  1.75811000  1.85380000  1
  Mo  Mo4  1  3.70419000  7.14420000  -0.06120370  1
  Mo  Mo5  1  5.42503000  1.82340000  0.04748400  1
  Mo  Mo6  1  5.41267000  7.36410000  1.85995000  1
  Mo  Mo7  1  3.63928000  1.72711000  1.80282000  1
  Mo  Mo8  1  -0.24489400  3.49029000  0.05231690  1
  Mo  Mo9  1  1.77675000  5.60262000  3.78519000  1
  Mo  Mo10  1  1.84128000  3.79929000  1.76731000  1
  Mo  Mo11  1  7.40128000  5.50151000  1.82410000  1
  Mo  Mo12  1  3.70043000  3.67190000  3.56308000  1
  Mo  Mo13  1  5.67180000  5.46058000  3.54692000  1
  Mo  Mo14  1  5.38875000  3.72989000  1.79466000  1
  Mo  Mo15  1  3.61726000  5.44956000  1.79442000  1
