# generated using pymatgen
data_Mo
_symmetry_space_group_name_H-M   'P 1'
_cell_length_a   7.29789726
_cell_length_b   7.29789726
_cell_length_c   3.64894867
_cell_angle_alpha   90.00000000
_cell_angle_beta   90.00000000
_cell_angle_gamma   90.00000000
_symmetry_Int_Tables_number   1
_chemical_formula_structural   Mo
_chemical_formula_sum   Mo16
_cell_volume   194.34046797
_cell_formula_units_Z   16
loop_
 _symmetry_equiv_pos_site_id
 _symmetry_equiv_pos_as_xyz
  1  'x, y, z'
loop_
 _atom_site_type_symbol
 _atom_site_label
 _atom_site_symmetry_multiplicity
 _atom_site_fract_x
 _atom_site_fract_y
 _atom_site_fract_z
 _atom_site_occupancy
  Mo  Mo0  1  7.24945000  -0.03416180  0.03114640  1
  Mo  Mo1  1  1.87592000  1.75090000  -0.12144200  1
  Mo  Mo2  1  1.81200000  7.23748000  1.85050000  1
  Mo  Mo3  1  7.28560000  1.75663000  1.78020000  1
  Mo  Mo4  1  3.73865000  7.33831000  3.63354000  1
  Mo  Mo5  1  5.45441000  1.95727000  -0.02544180  1
  Mo  Mo6  1  5.41444000  7.25241000  1.79475000  1
  Mo  Mo7  1  3.49087000  1.81962000  1.69100000  1
  Mo  Mo8  1  7.26654000  3.80189000  3.75766000  1
  Mo  Mo9  1  1.86587000  5.42585000  -0.01967000  1
  Mo  Mo10  1  1.81950000  3.64330000  1.86432000  1
  Mo  Mo11  1  7.37533000  5.62374000  1.96966000  1
  Mo  Mo12  1  3.46661000  3.42213000  -0.14141700  1
  Mo  Mo13  1  5.47976000  5.46168000  3.71644000  1
  Mo  Mo14  1  5.60507000  3.66632000  1.81511000  1
  Mo  Mo15  1  3.61977000  5.39853000  1.86669000  1
