# generated using pymatgen
data_Mo
_symmetry_space_group_name_H-M   'P 1'
_cell_length_a   7.33357816
_cell_length_b   7.33357816
_cell_length_c   3.66678905
_cell_angle_alpha   90.00000000
_cell_angle_beta   90.00000000
_cell_angle_gamma   90.00000000
_symmetry_Int_Tables_number   1
_chemical_formula_structural   Mo
_chemical_formula_sum   Mo16
_cell_volume   197.20493385
_cell_formula_units_Z   16
loop_
 _symmetry_equiv_pos_site_id
 _symmetry_equiv_pos_as_xyz
  1  'x, y, z'
loop_
 _atom_site_type_symbol
 _atom_site_label
 _atom_site_symmetry_multiplicity
 _atom_site_fract_x
 _atom_site_fract_y
 _atom_site_fract_z
 _atom_site_occupancy
  Mo  Mo0  1  -0.12694200  7.29784000  -0.12836800  1
  Mo  Mo1  1  1.89120000  1.86614000  3.61278000  1
  Mo  Mo2  1  1.83677000  0.14383600  1.86489000  1
  Mo  Mo3  1  7.19003000  1.84806000  1.69092000  1
  Mo  Mo4  1  3.52262000  7.13906000  -0.03855840  1
  Mo  Mo5  1  5.49972000  1.86904000  0.01943620  1
  Mo  Mo6  1  5.49211000  7.17447000  1.91618000  1
  Mo  Mo7  1  3.72725000  1.77767000  1.73214000  1
  Mo  Mo8  1  0.06838130  3.54763000  -0.17503100  1
  Mo  Mo9  1  1.62743000  5.45917000  3.83867000  1
  Mo  Mo10  1  1.94254000  3.53972000  1.86389000  1
  Mo  Mo11  1  7.35523000  5.65029000  1.84429000  1
  Mo  Mo12  1  3.50015000  3.61544000  3.76896000  1
  Mo  Mo13  1  5.51990000  5.47558000  3.67286000  1
  Mo  Mo14  1  5.38377000  3.67352000  1.76185000  1
  Mo  Mo15  1  3.79381000  5.48012000  1.86707000  1
