# generated using pymatgen
data_Mo
_symmetry_space_group_name_H-M   'P 1'
_cell_length_a   7.33357816
_cell_length_b   7.33357816
_cell_length_c   3.66678905
_cell_angle_alpha   90.00000000
_cell_angle_beta   90.00000000
_cell_angle_gamma   90.00000000
_symmetry_Int_Tables_number   1
_chemical_formula_structural   Mo
_chemical_formula_sum   Mo16
_cell_volume   197.20493385
_cell_formula_units_Z   16
loop_
 _symmetry_equiv_pos_site_id
 _symmetry_equiv_pos_as_xyz
  1  'x, y, z'
loop_
 _atom_site_type_symbol
 _atom_site_label
 _atom_site_symmetry_multiplicity
 _atom_site_fract_x
 _atom_site_fract_y
 _atom_site_fract_z
 _atom_site_occupancy
  Mo  Mo0  1  -0.05534490  7.34478000  -0.10635900  1
  Mo  Mo1  1  1.70211000  1.80388000  3.76524000  1
  Mo  Mo2  1  1.95273000  0.02202080  1.71049000  1
  Mo  Mo3  1  7.27431000  1.80093000  1.88669000  1
  Mo  Mo4  1  3.75830000  7.10757000  -0.03168310  1
  Mo  Mo5  1  5.55553000  1.72820000  0.00541463  1
  Mo  Mo6  1  5.27046000  7.25033000  1.71499000  1
  Mo  Mo7  1  3.64739000  1.81235000  1.78510000  1
  Mo  Mo8  1  -0.01922880  3.71247000  0.07312580  1
  Mo  Mo9  1  1.62672000  5.63234000  3.56782000  1
  Mo  Mo10  1  1.70389000  3.62236000  1.85844000  1
  Mo  Mo11  1  7.38195000  5.45632000  1.78885000  1
  Mo  Mo12  1  3.56535000  3.70576000  3.74060000  1
  Mo  Mo13  1  5.62619000  5.46616000  3.65599000  1
  Mo  Mo14  1  5.50339000  3.69414000  1.83906000  1
  Mo  Mo15  1  3.73025000  5.39796000  1.85822000  1
