# generated using pymatgen
data_Mo
_symmetry_space_group_name_H-M   'P 1'
_cell_length_a   7.33357816
_cell_length_b   7.33357816
_cell_length_c   3.66678905
_cell_angle_alpha   90.00000000
_cell_angle_beta   90.00000000
_cell_angle_gamma   90.00000000
_symmetry_Int_Tables_number   1
_chemical_formula_structural   Mo
_chemical_formula_sum   Mo16
_cell_volume   197.20493385
_cell_formula_units_Z   16
loop_
 _symmetry_equiv_pos_site_id
 _symmetry_equiv_pos_as_xyz
  1  'x, y, z'
loop_
 _atom_site_type_symbol
 _atom_site_label
 _atom_site_symmetry_multiplicity
 _atom_site_fract_x
 _atom_site_fract_y
 _atom_site_fract_z
 _atom_site_occupancy
  Mo  Mo0  1  -0.14763300  7.12021000  0.02133320  1
  Mo  Mo1  1  1.56647000  1.74311000  3.64589000  1
  Mo  Mo2  1  1.94723000  0.01585520  1.93292000  1
  Mo  Mo3  1  7.28130000  1.82579000  1.78511000  1
  Mo  Mo4  1  3.75553000  7.25584000  -0.07143070  1
  Mo  Mo5  1  5.60699000  1.94056000  -0.01111930  1
  Mo  Mo6  1  5.58149000  7.35008000  2.00425000  1
  Mo  Mo7  1  3.67059000  1.88444000  1.80827000  1
  Mo  Mo8  1  -0.11584900  3.70803000  -0.03260280  1
  Mo  Mo9  1  1.91103000  5.36733000  3.65369000  1
  Mo  Mo10  1  1.89019000  3.53767000  1.83743000  1
  Mo  Mo11  1  7.42923000  5.46298000  1.88583000  1
  Mo  Mo12  1  3.54514000  3.72144000  3.37352000  1
  Mo  Mo13  1  5.32983000  5.41200000  3.66560000  1
  Mo  Mo14  1  5.51348000  3.75472000  1.77497000  1
  Mo  Mo15  1  3.45897000  5.45753000  1.83833000  1
