# generated using pymatgen
data_Mo
_symmetry_space_group_name_H-M   'P 1'
_cell_length_a   7.33357816
_cell_length_b   7.33357816
_cell_length_c   3.66678905
_cell_angle_alpha   90.00000000
_cell_angle_beta   90.00000000
_cell_angle_gamma   90.00000000
_symmetry_Int_Tables_number   1
_chemical_formula_structural   Mo
_chemical_formula_sum   Mo16
_cell_volume   197.20493385
_cell_formula_units_Z   16
loop_
 _symmetry_equiv_pos_site_id
 _symmetry_equiv_pos_as_xyz
  1  'x, y, z'
loop_
 _atom_site_type_symbol
 _atom_site_label
 _atom_site_symmetry_multiplicity
 _atom_site_fract_x
 _atom_site_fract_y
 _atom_site_fract_z
 _atom_site_occupancy
  Mo  Mo0  1  -0.13346800  7.57299000  0.09488370  1
  Mo  Mo1  1  1.93588000  1.90549000  3.78100000  1
  Mo  Mo2  1  1.71208000  -0.03516900  1.90648000  1
  Mo  Mo3  1  7.27933000  1.89999000  1.67793000  1
  Mo  Mo4  1  3.41064000  7.05553000  -0.08215520  1
  Mo  Mo5  1  5.50807000  1.80544000  -0.18517500  1
  Mo  Mo6  1  5.44931000  7.17843000  1.84549000  1
  Mo  Mo7  1  3.77480000  1.78427000  1.94297000  1
  Mo  Mo8  1  -0.01032270  3.57100000  -0.10531800  1
  Mo  Mo9  1  1.71781000  5.47630000  3.62700000  1
  Mo  Mo10  1  1.78865000  3.63821000  1.74635000  1
  Mo  Mo11  1  7.36153000  5.40393000  1.95810000  1
  Mo  Mo12  1  3.71709000  3.67383000  3.60517000  1
  Mo  Mo13  1  5.53015000  5.46480000  3.66972000  1
  Mo  Mo14  1  5.52787000  3.89308000  1.80389000  1
  Mo  Mo15  1  3.65459000  5.26944000  1.82564000  1
