# generated using pymatgen
data_Mo
_symmetry_space_group_name_H-M   'P 1'
_cell_length_a   7.33357816
_cell_length_b   7.33357816
_cell_length_c   3.66678905
_cell_angle_alpha   90.00000000
_cell_angle_beta   90.00000000
_cell_angle_gamma   90.00000000
_symmetry_Int_Tables_number   1
_chemical_formula_structural   Mo
_chemical_formula_sum   Mo16
_cell_volume   197.20493385
_cell_formula_units_Z   16
loop_
 _symmetry_equiv_pos_site_id
 _symmetry_equiv_pos_as_xyz
  1  'x, y, z'
loop_
 _atom_site_type_symbol
 _atom_site_label
 _atom_site_symmetry_multiplicity
 _atom_site_fract_x
 _atom_site_fract_y
 _atom_site_fract_z
 _atom_site_occupancy
  Mo  Mo0  1  -0.07636260  7.29246000  -0.10301700  1
  Mo  Mo1  1  1.80074000  1.85091000  3.63141000  1
  Mo  Mo2  1  1.80222000  0.03843500  1.81484000  1
  Mo  Mo3  1  7.47375000  1.74779000  1.79088000  1
  Mo  Mo4  1  3.65182000  7.42164000  -0.13347300  1
  Mo  Mo5  1  5.26017000  1.75688000  -0.02530830  1
  Mo  Mo6  1  5.66739000  7.33723000  1.64983000  1
  Mo  Mo7  1  3.54000000  2.02941000  1.92520000  1
  Mo  Mo8  1  0.01715980  3.41950000  0.06056360  1
  Mo  Mo9  1  1.88706000  5.51578000  3.69893000  1
  Mo  Mo10  1  1.77297000  3.67049000  2.00616000  1
  Mo  Mo11  1  7.34556000  5.37162000  1.83944000  1
  Mo  Mo12  1  3.40174000  3.66569000  3.75384000  1
  Mo  Mo13  1  5.35527000  5.41431000  3.63849000  1
  Mo  Mo14  1  5.60082000  3.56856000  1.68485000  1
  Mo  Mo15  1  3.72371000  5.45687000  1.87936000  1
