# generated using pymatgen
data_Mo
_symmetry_space_group_name_H-M   'P 1'
_cell_length_a   7.33357816
_cell_length_b   7.33357816
_cell_length_c   3.66678905
_cell_angle_alpha   90.00000000
_cell_angle_beta   90.00000000
_cell_angle_gamma   90.00000000
_symmetry_Int_Tables_number   1
_chemical_formula_structural   Mo
_chemical_formula_sum   Mo16
_cell_volume   197.20493385
_cell_formula_units_Z   16
loop_
 _symmetry_equiv_pos_site_id
 _symmetry_equiv_pos_as_xyz
  1  'x, y, z'
loop_
 _atom_site_type_symbol
 _atom_site_label
 _atom_site_symmetry_multiplicity
 _atom_site_fract_x
 _atom_site_fract_y
 _atom_site_fract_z
 _atom_site_occupancy
  Mo  Mo0  1  0.10295200  7.22735000  -0.08243870  1
  Mo  Mo1  1  1.92003000  1.77403000  3.74926000  1
  Mo  Mo2  1  1.91754000  -0.00441370  1.76457000  1
  Mo  Mo3  1  7.23723000  1.86791000  1.68062000  1
  Mo  Mo4  1  3.60357000  7.31553000  0.02578320  1
  Mo  Mo5  1  5.60123000  1.88855000  0.08045230  1
  Mo  Mo6  1  5.62526000  7.28836000  1.68210000  1
  Mo  Mo7  1  3.70584000  1.75259000  1.87075000  1
  Mo  Mo8  1  -0.05021890  3.75405000  -0.22921200  1
  Mo  Mo9  1  1.71558000  5.31654000  3.61526000  1
  Mo  Mo10  1  1.74827000  3.55068000  1.94838000  1
  Mo  Mo11  1  7.25714000  5.52461000  1.76768000  1
  Mo  Mo12  1  3.52876000  3.67004000  3.77036000  1
  Mo  Mo13  1  5.32477000  5.53190000  3.71599000  1
  Mo  Mo14  1  5.35154000  3.58797000  1.90984000  1
  Mo  Mo15  1  3.63452000  5.51189000  1.84261000  1
