# generated using pymatgen
data_Mo
_symmetry_space_group_name_H-M   'P 1'
_cell_length_a   7.33357816
_cell_length_b   7.33357816
_cell_length_c   3.66678905
_cell_angle_alpha   90.00000000
_cell_angle_beta   90.00000000
_cell_angle_gamma   90.00000000
_symmetry_Int_Tables_number   1
_chemical_formula_structural   Mo
_chemical_formula_sum   Mo16
_cell_volume   197.20493385
_cell_formula_units_Z   16
loop_
 _symmetry_equiv_pos_site_id
 _symmetry_equiv_pos_as_xyz
  1  'x, y, z'
loop_
 _atom_site_type_symbol
 _atom_site_label
 _atom_site_symmetry_multiplicity
 _atom_site_fract_x
 _atom_site_fract_y
 _atom_site_fract_z
 _atom_site_occupancy
  Mo  Mo0  1  -0.07169360  7.28725000  0.05183650  1
  Mo  Mo1  1  1.74272000  1.82314000  3.58234000  1
  Mo  Mo2  1  1.84132000  0.01533720  1.80112000  1
  Mo  Mo3  1  7.44398000  1.85025000  1.88813000  1
  Mo  Mo4  1  3.69221000  7.36681000  0.04661920  1
  Mo  Mo5  1  5.34666000  1.85458000  -0.12994900  1
  Mo  Mo6  1  5.55837000  7.17229000  1.80438000  1
  Mo  Mo7  1  3.61174000  1.70036000  1.84083000  1
  Mo  Mo8  1  -0.08563000  3.60513000  -0.07405520  1
  Mo  Mo9  1  1.77312000  5.56438000  3.63739000  1
  Mo  Mo10  1  1.90483000  3.42619000  1.79820000  1
  Mo  Mo11  1  7.33982000  5.48657000  1.73912000  1
  Mo  Mo12  1  3.56797000  3.70543000  3.63243000  1
  Mo  Mo13  1  5.51644000  5.43019000  3.65518000  1
  Mo  Mo14  1  5.41391000  3.52450000  1.78709000  1
  Mo  Mo15  1  3.62823000  5.74518000  2.05133000  1
