# generated using pymatgen
data_Mo
_symmetry_space_group_name_H-M   'P 1'
_cell_length_a   7.33357816
_cell_length_b   7.33357816
_cell_length_c   3.66678905
_cell_angle_alpha   90.00000000
_cell_angle_beta   90.00000000
_cell_angle_gamma   90.00000000
_symmetry_Int_Tables_number   1
_chemical_formula_structural   Mo
_chemical_formula_sum   Mo16
_cell_volume   197.20493385
_cell_formula_units_Z   16
loop_
 _symmetry_equiv_pos_site_id
 _symmetry_equiv_pos_as_xyz
  1  'x, y, z'
loop_
 _atom_site_type_symbol
 _atom_site_label
 _atom_site_symmetry_multiplicity
 _atom_site_fract_x
 _atom_site_fract_y
 _atom_site_fract_z
 _atom_site_occupancy
  Mo  Mo0  1  -0.06795320  7.32138000  -0.00144372  1
  Mo  Mo1  1  1.94048000  1.88577000  3.90453000  1
  Mo  Mo2  1  1.70980000  -0.08272460  1.91723000  1
  Mo  Mo3  1  7.29853000  1.76881000  1.74581000  1
  Mo  Mo4  1  3.55462000  7.27346000  0.07016110  1
  Mo  Mo5  1  5.41317000  1.61186000  0.09258990  1
  Mo  Mo6  1  5.67023000  7.31276000  1.89756000  1
  Mo  Mo7  1  3.61773000  2.06858000  1.83076000  1
  Mo  Mo8  1  -0.13966500  3.44613000  -0.17133000  1
  Mo  Mo9  1  1.80360000  5.50468000  3.63829000  1
  Mo  Mo10  1  1.73186000  3.65991000  1.73601000  1
  Mo  Mo11  1  7.35879000  5.38464000  1.62011000  1
  Mo  Mo12  1  3.71564000  3.66700000  3.62953000  1
  Mo  Mo13  1  5.41956000  5.45378000  3.56345000  1
  Mo  Mo14  1  5.47810000  3.76664000  1.77789000  1
  Mo  Mo15  1  3.71951000  5.51491000  1.86085000  1
