# generated using pymatgen
data_Mo
_symmetry_space_group_name_H-M   'P 1'
_cell_length_a   7.33357816
_cell_length_b   7.33357816
_cell_length_c   3.66678905
_cell_angle_alpha   90.00000000
_cell_angle_beta   90.00000000
_cell_angle_gamma   90.00000000
_symmetry_Int_Tables_number   1
_chemical_formula_structural   Mo
_chemical_formula_sum   Mo16
_cell_volume   197.20493385
_cell_formula_units_Z   16
loop_
 _symmetry_equiv_pos_site_id
 _symmetry_equiv_pos_as_xyz
  1  'x, y, z'
loop_
 _atom_site_type_symbol
 _atom_site_label
 _atom_site_symmetry_multiplicity
 _atom_site_fract_x
 _atom_site_fract_y
 _atom_site_fract_z
 _atom_site_occupancy
  Mo  Mo0  1  0.06280600  7.23004000  0.02191100  1
  Mo  Mo1  1  1.84754000  1.82978000  3.69011000  1
  Mo  Mo2  1  1.77155000  -0.09458380  1.77280000  1
  Mo  Mo3  1  7.48911000  1.83245000  1.83169000  1
  Mo  Mo4  1  3.52632000  7.31129000  -0.02333240  1
  Mo  Mo5  1  5.67162000  1.82757000  -0.06946550  1
  Mo  Mo6  1  5.54819000  7.38319000  1.88914000  1
  Mo  Mo7  1  3.70311000  1.86818000  1.87203000  1
  Mo  Mo8  1  -0.01741390  3.56576000  -0.04012570  1
  Mo  Mo9  1  1.59521000  5.62204000  3.54509000  1
  Mo  Mo10  1  1.77143000  3.51098000  1.90493000  1
  Mo  Mo11  1  7.23122000  5.40908000  1.86053000  1
  Mo  Mo12  1  3.53425000  3.59669000  3.78327000  1
  Mo  Mo13  1  5.43928000  5.54259000  3.45955000  1
  Mo  Mo14  1  5.44957000  3.58884000  1.76788000  1
  Mo  Mo15  1  3.60021000  5.53369000  1.84599000  1
