# generated using pymatgen
data_Mo
_symmetry_space_group_name_H-M   'P 1'
_cell_length_a   7.33357816
_cell_length_b   7.33357816
_cell_length_c   3.66678905
_cell_angle_alpha   90.00000000
_cell_angle_beta   90.00000000
_cell_angle_gamma   90.00000000
_symmetry_Int_Tables_number   1
_chemical_formula_structural   Mo
_chemical_formula_sum   Mo16
_cell_volume   197.20493385
_cell_formula_units_Z   16
loop_
 _symmetry_equiv_pos_site_id
 _symmetry_equiv_pos_as_xyz
  1  'x, y, z'
loop_
 _atom_site_type_symbol
 _atom_site_label
 _atom_site_symmetry_multiplicity
 _atom_site_fract_x
 _atom_site_fract_y
 _atom_site_fract_z
 _atom_site_occupancy
  Mo  Mo0  1  -0.03856170  7.21757000  0.09175080  1
  Mo  Mo1  1  1.77473000  1.95283000  3.75662000  1
  Mo  Mo2  1  1.78417000  0.01262220  1.90094000  1
  Mo  Mo3  1  7.17544000  1.63348000  1.75655000  1
  Mo  Mo4  1  3.65356000  7.33314000  0.02513120  1
  Mo  Mo5  1  5.38752000  1.77648000  0.09048210  1
  Mo  Mo6  1  5.36275000  7.41774000  1.94723000  1
  Mo  Mo7  1  3.62148000  1.72631000  1.90838000  1
  Mo  Mo8  1  -0.02880790  3.65474000  -0.10250700  1
  Mo  Mo9  1  1.98965000  5.57166000  3.60968000  1
  Mo  Mo10  1  1.77913000  3.51418000  1.89740000  1
  Mo  Mo11  1  7.63391000  5.44480000  1.69573000  1
  Mo  Mo12  1  3.75071000  3.59455000  3.48448000  1
  Mo  Mo13  1  5.42285000  5.53699000  3.54890000  1
  Mo  Mo14  1  5.50535000  3.79335000  1.71123000  1
  Mo  Mo15  1  3.45013000  5.37715000  1.79000000  1
