# generated using pymatgen
data_Mo
_symmetry_space_group_name_H-M   'P 1'
_cell_length_a   7.29789726
_cell_length_b   7.29789726
_cell_length_c   3.64894867
_cell_angle_alpha   90.00000000
_cell_angle_beta   90.00000000
_cell_angle_gamma   90.00000000
_symmetry_Int_Tables_number   1
_chemical_formula_structural   Mo
_chemical_formula_sum   Mo16
_cell_volume   194.34046797
_cell_formula_units_Z   16
loop_
 _symmetry_equiv_pos_site_id
 _symmetry_equiv_pos_as_xyz
  1  'x, y, z'
loop_
 _atom_site_type_symbol
 _atom_site_label
 _atom_site_symmetry_multiplicity
 _atom_site_fract_x
 _atom_site_fract_y
 _atom_site_fract_z
 _atom_site_occupancy
  Mo  Mo0  1  7.16325000  -0.00070841  0.01572310  1
  Mo  Mo1  1  1.64275000  1.79099000  0.02374580  1
  Mo  Mo2  1  1.90129000  7.25320000  1.78904000  1
  Mo  Mo3  1  7.44164000  1.81206000  1.91205000  1
  Mo  Mo4  1  3.63624000  7.31876000  3.58232000  1
  Mo  Mo5  1  5.56712000  1.84384000  0.08828690  1
  Mo  Mo6  1  5.40857000  7.36307000  1.85743000  1
  Mo  Mo7  1  3.59596000  1.68602000  1.79028000  1
  Mo  Mo8  1  7.28926000  3.60788000  3.73449000  1
  Mo  Mo9  1  1.88779000  5.64765000  0.05204400  1
  Mo  Mo10  1  1.83939000  3.64388000  1.78318000  1
  Mo  Mo11  1  7.34570000  5.50051000  1.78985000  1
  Mo  Mo12  1  3.68777000  3.59440000  -0.06880510  1
  Mo  Mo13  1  5.32529000  5.46233000  3.62059000  1
  Mo  Mo14  1  5.49877000  3.59798000  1.78414000  1
  Mo  Mo15  1  3.58901000  5.40004000  1.70869000  1
