# generated using pymatgen
data_Mo
_symmetry_space_group_name_H-M   'P 1'
_cell_length_a   7.33357816
_cell_length_b   7.33357816
_cell_length_c   3.66678905
_cell_angle_alpha   90.00000000
_cell_angle_beta   90.00000000
_cell_angle_gamma   90.00000000
_symmetry_Int_Tables_number   1
_chemical_formula_structural   Mo
_chemical_formula_sum   Mo16
_cell_volume   197.20493385
_cell_formula_units_Z   16
loop_
 _symmetry_equiv_pos_site_id
 _symmetry_equiv_pos_as_xyz
  1  'x, y, z'
loop_
 _atom_site_type_symbol
 _atom_site_label
 _atom_site_symmetry_multiplicity
 _atom_site_fract_x
 _atom_site_fract_y
 _atom_site_fract_z
 _atom_site_occupancy
  Mo  Mo0  1  -0.04239050  7.16296000  -0.00465848  1
  Mo  Mo1  1  1.60788000  1.82902000  3.61670000  1
  Mo  Mo2  1  1.82593000  -0.05495880  1.82572000  1
  Mo  Mo3  1  7.33405000  1.95624000  1.76075000  1
  Mo  Mo4  1  3.58459000  7.35609000  0.04486830  1
  Mo  Mo5  1  5.44708000  1.85646000  0.15603000  1
  Mo  Mo6  1  5.56615000  7.36930000  1.87417000  1
  Mo  Mo7  1  3.54447000  1.81991000  1.59604000  1
  Mo  Mo8  1  -0.02326470  3.80106000  -0.19270200  1
  Mo  Mo9  1  1.74819000  5.45822000  3.68298000  1
  Mo  Mo10  1  1.85829000  3.59723000  1.78334000  1
  Mo  Mo11  1  7.39616000  5.39149000  1.76526000  1
  Mo  Mo12  1  3.63508000  3.70563000  3.70971000  1
  Mo  Mo13  1  5.60183000  5.40200000  3.72817000  1
  Mo  Mo14  1  5.38371000  3.49185000  1.76369000  1
  Mo  Mo15  1  3.75624000  5.41509000  2.00192000  1
