# generated using pymatgen
data_Mo
_symmetry_space_group_name_H-M   'P 1'
_cell_length_a   7.33357816
_cell_length_b   7.33357816
_cell_length_c   3.66678905
_cell_angle_alpha   90.00000000
_cell_angle_beta   90.00000000
_cell_angle_gamma   90.00000000
_symmetry_Int_Tables_number   1
_chemical_formula_structural   Mo
_chemical_formula_sum   Mo16
_cell_volume   197.20493385
_cell_formula_units_Z   16
loop_
 _symmetry_equiv_pos_site_id
 _symmetry_equiv_pos_as_xyz
  1  'x, y, z'
loop_
 _atom_site_type_symbol
 _atom_site_label
 _atom_site_symmetry_multiplicity
 _atom_site_fract_x
 _atom_site_fract_y
 _atom_site_fract_z
 _atom_site_occupancy
  Mo  Mo0  1  0.08738050  7.38653000  0.03660600  1
  Mo  Mo1  1  1.91791000  1.88007000  3.85736000  1
  Mo  Mo2  1  1.79244000  0.11153900  1.85041000  1
  Mo  Mo3  1  7.20841000  1.84312000  1.63703000  1
  Mo  Mo4  1  3.63463000  6.97665000  -0.08115160  1
  Mo  Mo5  1  5.46058000  1.86779000  -0.03976820  1
  Mo  Mo6  1  5.49441000  7.22158000  1.85955000  1
  Mo  Mo7  1  3.69329000  1.87619000  1.95960000  1
  Mo  Mo8  1  -0.28356900  3.53471000  -0.08295380  1
  Mo  Mo9  1  1.71783000  5.45530000  3.55870000  1
  Mo  Mo10  1  1.67502000  3.46017000  1.80260000  1
  Mo  Mo11  1  7.31854000  5.45650000  1.83244000  1
  Mo  Mo12  1  3.64255000  3.82632000  3.70898000  1
  Mo  Mo13  1  5.54401000  5.50261000  3.64631000  1
  Mo  Mo14  1  5.57770000  3.70656000  1.84744000  1
  Mo  Mo15  1  3.74286000  5.45194000  1.71884000  1
