# generated using pymatgen
data_Mo
_symmetry_space_group_name_H-M   'P 1'
_cell_length_a   7.33357816
_cell_length_b   7.33357816
_cell_length_c   3.66678905
_cell_angle_alpha   90.00000000
_cell_angle_beta   90.00000000
_cell_angle_gamma   90.00000000
_symmetry_Int_Tables_number   1
_chemical_formula_structural   Mo
_chemical_formula_sum   Mo16
_cell_volume   197.20493385
_cell_formula_units_Z   16
loop_
 _symmetry_equiv_pos_site_id
 _symmetry_equiv_pos_as_xyz
  1  'x, y, z'
loop_
 _atom_site_type_symbol
 _atom_site_label
 _atom_site_symmetry_multiplicity
 _atom_site_fract_x
 _atom_site_fract_y
 _atom_site_fract_z
 _atom_site_occupancy
  Mo  Mo0  1  -0.16429800  7.35060000  0.11792600  1
  Mo  Mo1  1  1.74955000  1.65809000  3.72298000  1
  Mo  Mo2  1  1.98142000  0.00010217  1.76311000  1
  Mo  Mo3  1  7.24591000  1.82195000  1.89919000  1
  Mo  Mo4  1  3.74274000  7.31126000  0.10392100  1
  Mo  Mo5  1  5.33415000  1.91184000  -0.07155070  1
  Mo  Mo6  1  5.40633000  7.18673000  1.69898000  1
  Mo  Mo7  1  3.60543000  2.01353000  1.80974000  1
  Mo  Mo8  1  -0.07638950  3.64346000  -0.11466000  1
  Mo  Mo9  1  1.74370000  5.38744000  3.73029000  1
  Mo  Mo10  1  1.66500000  3.56405000  1.74590000  1
  Mo  Mo11  1  7.41536000  5.45695000  1.82323000  1
  Mo  Mo12  1  3.64557000  3.77563000  3.63682000  1
  Mo  Mo13  1  5.59256000  5.37924000  3.56502000  1
  Mo  Mo14  1  5.60892000  3.58765000  1.80961000  1
  Mo  Mo15  1  3.72804000  5.50906000  1.87148000  1
