# generated using pymatgen
data_Mo
_symmetry_space_group_name_H-M   'P 1'
_cell_length_a   7.33357816
_cell_length_b   7.33357816
_cell_length_c   3.66678905
_cell_angle_alpha   90.00000000
_cell_angle_beta   90.00000000
_cell_angle_gamma   90.00000000
_symmetry_Int_Tables_number   1
_chemical_formula_structural   Mo
_chemical_formula_sum   Mo16
_cell_volume   197.20493385
_cell_formula_units_Z   16
loop_
 _symmetry_equiv_pos_site_id
 _symmetry_equiv_pos_as_xyz
  1  'x, y, z'
loop_
 _atom_site_type_symbol
 _atom_site_label
 _atom_site_symmetry_multiplicity
 _atom_site_fract_x
 _atom_site_fract_y
 _atom_site_fract_z
 _atom_site_occupancy
  Mo  Mo0  1  -0.24115500  7.41783000  -0.07211170  1
  Mo  Mo1  1  1.79269000  1.58566000  3.67849000  1
  Mo  Mo2  1  2.01511000  0.06522880  1.94992000  1
  Mo  Mo3  1  7.22341000  1.78837000  1.76408000  1
  Mo  Mo4  1  3.78526000  7.21320000  0.01640280  1
  Mo  Mo5  1  5.37683000  1.80814000  -0.11486800  1
  Mo  Mo6  1  5.43752000  7.27075000  1.79217000  1
  Mo  Mo7  1  3.57872000  2.02995000  1.95371000  1
  Mo  Mo8  1  -0.12975200  3.52783000  -0.06699040  1
  Mo  Mo9  1  1.79388000  5.56873000  3.65541000  1
  Mo  Mo10  1  1.75000000  3.48340000  1.68915000  1
  Mo  Mo11  1  7.37601000  5.60030000  1.79896000  1
  Mo  Mo12  1  3.74108000  3.63672000  3.59549000  1
  Mo  Mo13  1  5.61067000  5.53427000  3.57683000  1
  Mo  Mo14  1  5.44525000  3.69682000  2.01576000  1
  Mo  Mo15  1  3.66847000  5.33039000  1.87960000  1
