# generated using pymatgen
data_Mo
_symmetry_space_group_name_H-M   'P 1'
_cell_length_a   7.33357816
_cell_length_b   7.33357816
_cell_length_c   3.66678905
_cell_angle_alpha   90.00000000
_cell_angle_beta   90.00000000
_cell_angle_gamma   90.00000000
_symmetry_Int_Tables_number   1
_chemical_formula_structural   Mo
_chemical_formula_sum   Mo16
_cell_volume   197.20493385
_cell_formula_units_Z   16
loop_
 _symmetry_equiv_pos_site_id
 _symmetry_equiv_pos_as_xyz
  1  'x, y, z'
loop_
 _atom_site_type_symbol
 _atom_site_label
 _atom_site_symmetry_multiplicity
 _atom_site_fract_x
 _atom_site_fract_y
 _atom_site_fract_z
 _atom_site_occupancy
  Mo  Mo0  1  0.03685330  7.35755000  -0.23092000  1
  Mo  Mo1  1  1.80234000  1.70632000  3.67469000  1
  Mo  Mo2  1  1.69858000  0.01113780  1.73901000  1
  Mo  Mo3  1  7.17402000  1.81910000  1.86542000  1
  Mo  Mo4  1  3.69597000  7.25272000  0.18512900  1
  Mo  Mo5  1  5.22381000  1.74833000  -0.13194400  1
  Mo  Mo6  1  5.71440000  7.19848000  1.81454000  1
  Mo  Mo7  1  3.38631000  1.76316000  1.88341000  1
  Mo  Mo8  1  -0.04349420  3.63417000  0.02970160  1
  Mo  Mo9  1  1.90897000  5.67621000  3.61858000  1
  Mo  Mo10  1  1.82980000  3.77584000  1.86651000  1
  Mo  Mo11  1  7.52708000  5.55865000  1.80224000  1
  Mo  Mo12  1  3.61855000  3.71757000  3.81172000  1
  Mo  Mo13  1  5.51875000  5.31850000  3.58974000  1
  Mo  Mo14  1  5.45873000  3.50325000  1.80766000  1
  Mo  Mo15  1  3.67334000  5.51659000  1.78651000  1
