# generated using pymatgen
data_Mo
_symmetry_space_group_name_H-M   'P 1'
_cell_length_a   7.33357816
_cell_length_b   7.33357816
_cell_length_c   3.66678905
_cell_angle_alpha   90.00000000
_cell_angle_beta   90.00000000
_cell_angle_gamma   90.00000000
_symmetry_Int_Tables_number   1
_chemical_formula_structural   Mo
_chemical_formula_sum   Mo16
_cell_volume   197.20493385
_cell_formula_units_Z   16
loop_
 _symmetry_equiv_pos_site_id
 _symmetry_equiv_pos_as_xyz
  1  'x, y, z'
loop_
 _atom_site_type_symbol
 _atom_site_label
 _atom_site_symmetry_multiplicity
 _atom_site_fract_x
 _atom_site_fract_y
 _atom_site_fract_z
 _atom_site_occupancy
  Mo  Mo0  1  0.01159850  7.15889000  -0.17953400  1
  Mo  Mo1  1  1.84799000  2.00676000  3.84807000  1
  Mo  Mo2  1  1.68655000  -0.03839190  1.81239000  1
  Mo  Mo3  1  7.49046000  1.74421000  1.88711000  1
  Mo  Mo4  1  3.43660000  7.33808000  -0.04074850  1
  Mo  Mo5  1  5.42912000  1.67131000  -0.03030480  1
  Mo  Mo6  1  5.34008000  7.35569000  1.71477000  1
  Mo  Mo7  1  3.68673000  1.60919000  1.77926000  1
  Mo  Mo8  1  0.13373700  3.56071000  0.06108420  1
  Mo  Mo9  1  1.85008000  5.48231000  3.76952000  1
  Mo  Mo10  1  1.87268000  3.64243000  1.97818000  1
  Mo  Mo11  1  7.25261000  5.38813000  1.82627000  1
  Mo  Mo12  1  3.66180000  3.77132000  3.72905000  1
  Mo  Mo13  1  5.49625000  5.62275000  3.55979000  1
  Mo  Mo14  1  5.39110000  3.67790000  1.65781000  1
  Mo  Mo15  1  3.63661000  5.56629000  1.73928000  1
