# generated using pymatgen
data_Mo
_symmetry_space_group_name_H-M   'P 1'
_cell_length_a   7.33357816
_cell_length_b   7.33357816
_cell_length_c   3.66678905
_cell_angle_alpha   90.00000000
_cell_angle_beta   90.00000000
_cell_angle_gamma   90.00000000
_symmetry_Int_Tables_number   1
_chemical_formula_structural   Mo
_chemical_formula_sum   Mo16
_cell_volume   197.20493385
_cell_formula_units_Z   16
loop_
 _symmetry_equiv_pos_site_id
 _symmetry_equiv_pos_as_xyz
  1  'x, y, z'
loop_
 _atom_site_type_symbol
 _atom_site_label
 _atom_site_symmetry_multiplicity
 _atom_site_fract_x
 _atom_site_fract_y
 _atom_site_fract_z
 _atom_site_occupancy
  Mo  Mo0  1  -0.10296200  7.29818000  0.09552150  1
  Mo  Mo1  1  1.94368000  1.77859000  3.52331000  1
  Mo  Mo2  1  1.68449000  -0.04646930  1.66423000  1
  Mo  Mo3  1  7.41858000  1.88194000  1.96771000  1
  Mo  Mo4  1  3.67663000  7.49649000  -0.01518710  1
  Mo  Mo5  1  5.40272000  1.93656000  0.01099570  1
  Mo  Mo6  1  5.49829000  7.20175000  1.74052000  1
  Mo  Mo7  1  3.65627000  1.76675000  1.88239000  1
  Mo  Mo8  1  0.00617107  3.57121000  -0.02144000  1
  Mo  Mo9  1  1.91316000  5.58057000  3.46404000  1
  Mo  Mo10  1  1.85506000  3.63601000  1.85510000  1
  Mo  Mo11  1  7.17756000  5.32228000  1.75663000  1
  Mo  Mo12  1  3.63289000  3.50875000  3.83195000  1
  Mo  Mo13  1  5.41667000  5.55077000  3.58209000  1
  Mo  Mo14  1  5.61630000  3.61913000  1.87243000  1
  Mo  Mo15  1  3.42850000  5.45507000  1.90172000  1
