# generated using pymatgen
data_Mo
_symmetry_space_group_name_H-M   'P 1'
_cell_length_a   7.33357816
_cell_length_b   7.33357816
_cell_length_c   3.66678905
_cell_angle_alpha   90.00000000
_cell_angle_beta   90.00000000
_cell_angle_gamma   90.00000000
_symmetry_Int_Tables_number   1
_chemical_formula_structural   Mo
_chemical_formula_sum   Mo16
_cell_volume   197.20493385
_cell_formula_units_Z   16
loop_
 _symmetry_equiv_pos_site_id
 _symmetry_equiv_pos_as_xyz
  1  'x, y, z'
loop_
 _atom_site_type_symbol
 _atom_site_label
 _atom_site_symmetry_multiplicity
 _atom_site_fract_x
 _atom_site_fract_y
 _atom_site_fract_z
 _atom_site_occupancy
  Mo  Mo0  1  0.03354090  7.25764000  -0.05297460  1
  Mo  Mo1  1  1.84866000  1.81996000  3.48236000  1
  Mo  Mo2  1  1.90842000  0.09705610  1.73623000  1
  Mo  Mo3  1  7.15759000  1.76763000  1.76161000  1
  Mo  Mo4  1  3.59313000  7.37830000  -0.17303400  1
  Mo  Mo5  1  5.58037000  1.62704000  0.15013300  1
  Mo  Mo6  1  5.39332000  7.23256000  1.91213000  1
  Mo  Mo7  1  3.74485000  1.86874000  1.73443000  1
  Mo  Mo8  1  -0.00297086  3.59866000  0.11253400  1
  Mo  Mo9  1  1.69192000  5.57218000  3.51675000  1
  Mo  Mo10  1  1.79000000  3.76424000  1.87043000  1
  Mo  Mo11  1  7.46788000  5.44910000  1.84446000  1
  Mo  Mo12  1  3.68918000  3.54116000  3.69176000  1
  Mo  Mo13  1  5.33986000  5.42425000  3.78246000  1
  Mo  Mo14  1  5.45286000  3.73687000  1.92855000  1
  Mo  Mo15  1  3.53538000  5.42221000  1.81418000  1
