# generated using pymatgen
data_Mo
_symmetry_space_group_name_H-M   'P 1'
_cell_length_a   7.33357816
_cell_length_b   7.33357816
_cell_length_c   3.66678905
_cell_angle_alpha   90.00000000
_cell_angle_beta   90.00000000
_cell_angle_gamma   90.00000000
_symmetry_Int_Tables_number   1
_chemical_formula_structural   Mo
_chemical_formula_sum   Mo16
_cell_volume   197.20493385
_cell_formula_units_Z   16
loop_
 _symmetry_equiv_pos_site_id
 _symmetry_equiv_pos_as_xyz
  1  'x, y, z'
loop_
 _atom_site_type_symbol
 _atom_site_label
 _atom_site_symmetry_multiplicity
 _atom_site_fract_x
 _atom_site_fract_y
 _atom_site_fract_z
 _atom_site_occupancy
  Mo  Mo0  1  -0.13853700  7.25491000  0.01211260  1
  Mo  Mo1  1  1.98181000  1.80627000  3.63555000  1
  Mo  Mo2  1  1.62947000  0.04886090  1.63864000  1
  Mo  Mo3  1  7.35230000  1.90038000  2.00300000  1
  Mo  Mo4  1  3.70067000  7.27545000  -0.20554200  1
  Mo  Mo5  1  5.46610000  1.70995000  0.13645900  1
  Mo  Mo6  1  5.54142000  7.17571000  1.89690000  1
  Mo  Mo7  1  3.80559000  1.91479000  1.72966000  1
  Mo  Mo8  1  -0.04364930  3.65376000  0.00741408  1
  Mo  Mo9  1  1.78469000  5.43294000  3.67995000  1
  Mo  Mo10  1  1.96535000  3.53423000  1.93612000  1
  Mo  Mo11  1  7.24465000  5.37207000  1.92783000  1
  Mo  Mo12  1  3.74018000  3.61059000  3.66407000  1
  Mo  Mo13  1  5.25285000  5.47076000  3.52567000  1
  Mo  Mo14  1  5.38665000  3.75222000  1.92603000  1
  Mo  Mo15  1  3.55446000  5.64469000  1.59813000  1
