# generated using pymatgen
data_Mo
_symmetry_space_group_name_H-M   'P 1'
_cell_length_a   7.33357816
_cell_length_b   7.33357816
_cell_length_c   3.66678905
_cell_angle_alpha   90.00000000
_cell_angle_beta   90.00000000
_cell_angle_gamma   90.00000000
_symmetry_Int_Tables_number   1
_chemical_formula_structural   Mo
_chemical_formula_sum   Mo16
_cell_volume   197.20493385
_cell_formula_units_Z   16
loop_
 _symmetry_equiv_pos_site_id
 _symmetry_equiv_pos_as_xyz
  1  'x, y, z'
loop_
 _atom_site_type_symbol
 _atom_site_label
 _atom_site_symmetry_multiplicity
 _atom_site_fract_x
 _atom_site_fract_y
 _atom_site_fract_z
 _atom_site_occupancy
  Mo  Mo0  1  -0.23605100  7.23531000  0.05765890  1
  Mo  Mo1  1  1.81721000  1.81337000  3.65244000  1
  Mo  Mo2  1  1.87940000  0.04960620  1.72740000  1
  Mo  Mo3  1  7.33108000  1.84969000  1.77751000  1
  Mo  Mo4  1  3.78736000  7.34020000  -0.02332670  1
  Mo  Mo5  1  5.26158000  1.91376000  0.07555430  1
  Mo  Mo6  1  5.26831000  7.25545000  1.79325000  1
  Mo  Mo7  1  3.68756000  1.81636000  1.84802000  1
  Mo  Mo8  1  -0.04846920  3.72388000  -0.08859210  1
  Mo  Mo9  1  1.94982000  5.64545000  3.50486000  1
  Mo  Mo10  1  1.94859000  3.48650000  1.97317000  1
  Mo  Mo11  1  7.29859000  5.47218000  1.85728000  1
  Mo  Mo12  1  3.75981000  3.50790000  3.68984000  1
  Mo  Mo13  1  5.39950000  5.44846000  3.70869000  1
  Mo  Mo14  1  5.63762000  3.52773000  1.74857000  1
  Mo  Mo15  1  3.48209000  5.47172000  1.80966000  1
