# generated using pymatgen
data_Mo
_symmetry_space_group_name_H-M   'P 1'
_cell_length_a   7.33357816
_cell_length_b   7.33357816
_cell_length_c   3.66678905
_cell_angle_alpha   90.00000000
_cell_angle_beta   90.00000000
_cell_angle_gamma   90.00000000
_symmetry_Int_Tables_number   1
_chemical_formula_structural   Mo
_chemical_formula_sum   Mo16
_cell_volume   197.20493385
_cell_formula_units_Z   16
loop_
 _symmetry_equiv_pos_site_id
 _symmetry_equiv_pos_as_xyz
  1  'x, y, z'
loop_
 _atom_site_type_symbol
 _atom_site_label
 _atom_site_symmetry_multiplicity
 _atom_site_fract_x
 _atom_site_fract_y
 _atom_site_fract_z
 _atom_site_occupancy
  Mo  Mo0  1  -0.06192910  7.29675000  -0.05333030  1
  Mo  Mo1  1  1.97148000  1.79259000  3.58443000  1
  Mo  Mo2  1  1.71708000  -0.26070500  1.88217000  1
  Mo  Mo3  1  7.37162000  1.92813000  1.84867000  1
  Mo  Mo4  1  3.62268000  7.38652000  -0.14228900  1
  Mo  Mo5  1  5.60226000  1.90281000  -0.03956160  1
  Mo  Mo6  1  5.53923000  7.36827000  1.81288000  1
  Mo  Mo7  1  3.71892000  1.94003000  1.56612000  1
  Mo  Mo8  1  -0.14014100  3.66399000  -0.06729080  1
  Mo  Mo9  1  1.65683000  5.39015000  3.83361000  1
  Mo  Mo10  1  1.90487000  3.65896000  1.96893000  1
  Mo  Mo11  1  7.16755000  5.34094000  1.77462000  1
  Mo  Mo12  1  3.66527000  3.61494000  3.69042000  1
  Mo  Mo13  1  5.35943000  5.31160000  3.74627000  1
  Mo  Mo14  1  5.39410000  3.60502000  1.86243000  1
  Mo  Mo15  1  3.73476000  5.61758000  1.84391000  1
