# generated using pymatgen
data_Mo
_symmetry_space_group_name_H-M   'P 1'
_cell_length_a   7.33357816
_cell_length_b   7.33357816
_cell_length_c   3.66678905
_cell_angle_alpha   90.00000000
_cell_angle_beta   90.00000000
_cell_angle_gamma   90.00000000
_symmetry_Int_Tables_number   1
_chemical_formula_structural   Mo
_chemical_formula_sum   Mo16
_cell_volume   197.20493385
_cell_formula_units_Z   16
loop_
 _symmetry_equiv_pos_site_id
 _symmetry_equiv_pos_as_xyz
  1  'x, y, z'
loop_
 _atom_site_type_symbol
 _atom_site_label
 _atom_site_symmetry_multiplicity
 _atom_site_fract_x
 _atom_site_fract_y
 _atom_site_fract_z
 _atom_site_occupancy
  Mo  Mo0  1  -0.02192340  7.29226000  0.21385700  1
  Mo  Mo1  1  1.67791000  1.69436000  3.64530000  1
  Mo  Mo2  1  2.05030000  -0.00695297  1.81828000  1
  Mo  Mo3  1  7.26011000  1.73642000  1.79591000  1
  Mo  Mo4  1  3.75292000  7.51073000  -0.04612830  1
  Mo  Mo5  1  5.44725000  1.78592000  0.04940020  1
  Mo  Mo6  1  5.40011000  7.32604000  1.77872000  1
  Mo  Mo7  1  3.54459000  1.84534000  1.74102000  1
  Mo  Mo8  1  -0.05556280  3.66067000  -0.16209600  1
  Mo  Mo9  1  1.85378000  5.38210000  3.71504000  1
  Mo  Mo10  1  1.89129000  3.70039000  1.83842000  1
  Mo  Mo11  1  7.22022000  5.40113000  1.90095000  1
  Mo  Mo12  1  3.62556000  3.63966000  3.51413000  1
  Mo  Mo13  1  5.49293000  5.50695000  3.81621000  1
  Mo  Mo14  1  5.46635000  3.69860000  1.73588000  1
  Mo  Mo15  1  3.61818000  5.38395000  1.75709000  1
