# generated using pymatgen
data_Mo
_symmetry_space_group_name_H-M   'P 1'
_cell_length_a   7.33357816
_cell_length_b   7.33357816
_cell_length_c   3.66678905
_cell_angle_alpha   90.00000000
_cell_angle_beta   90.00000000
_cell_angle_gamma   90.00000000
_symmetry_Int_Tables_number   1
_chemical_formula_structural   Mo
_chemical_formula_sum   Mo16
_cell_volume   197.20493385
_cell_formula_units_Z   16
loop_
 _symmetry_equiv_pos_site_id
 _symmetry_equiv_pos_as_xyz
  1  'x, y, z'
loop_
 _atom_site_type_symbol
 _atom_site_label
 _atom_site_symmetry_multiplicity
 _atom_site_fract_x
 _atom_site_fract_y
 _atom_site_fract_z
 _atom_site_occupancy
  Mo  Mo0  1  -0.02212890  7.29986000  0.12986900  1
  Mo  Mo1  1  1.83564000  1.67345000  3.58274000  1
  Mo  Mo2  1  1.72838000  -0.09530470  1.74246000  1
  Mo  Mo3  1  7.29025000  1.84160000  1.82897000  1
  Mo  Mo4  1  3.49544000  7.39434000  -0.00394291  1
  Mo  Mo5  1  5.52923000  1.79047000  -0.13812400  1
  Mo  Mo6  1  5.39173000  7.28825000  1.87377000  1
  Mo  Mo7  1  3.73323000  1.84925000  1.89754000  1
  Mo  Mo8  1  -0.01653200  3.68540000  0.06487780  1
  Mo  Mo9  1  1.91679000  5.42364000  3.49435000  1
  Mo  Mo10  1  1.65890000  3.62888000  1.80230000  1
  Mo  Mo11  1  7.26090000  5.55228000  1.78447000  1
  Mo  Mo12  1  3.57243000  3.60072000  3.47693000  1
  Mo  Mo13  1  5.41290000  5.47104000  3.81418000  1
  Mo  Mo14  1  5.78584000  3.68834000  1.90515000  1
  Mo  Mo15  1  3.65102000  5.46538000  1.85646000  1
