# generated using pymatgen
data_Mo
_symmetry_space_group_name_H-M   'P 1'
_cell_length_a   7.33357816
_cell_length_b   7.33357816
_cell_length_c   3.66678905
_cell_angle_alpha   90.00000000
_cell_angle_beta   90.00000000
_cell_angle_gamma   90.00000000
_symmetry_Int_Tables_number   1
_chemical_formula_structural   Mo
_chemical_formula_sum   Mo16
_cell_volume   197.20493385
_cell_formula_units_Z   16
loop_
 _symmetry_equiv_pos_site_id
 _symmetry_equiv_pos_as_xyz
  1  'x, y, z'
loop_
 _atom_site_type_symbol
 _atom_site_label
 _atom_site_symmetry_multiplicity
 _atom_site_fract_x
 _atom_site_fract_y
 _atom_site_fract_z
 _atom_site_occupancy
  Mo  Mo0  1  0.06482640  7.22863000  -0.17424500  1
  Mo  Mo1  1  1.69412000  1.78371000  3.78379000  1
  Mo  Mo2  1  1.80198000  0.06034530  1.89385000  1
  Mo  Mo3  1  7.30675000  1.78810000  1.81697000  1
  Mo  Mo4  1  3.67525000  7.37072000  0.05933770  1
  Mo  Mo5  1  5.50198000  1.76546000  -0.07243660  1
  Mo  Mo6  1  5.47967000  7.26712000  1.83409000  1
  Mo  Mo7  1  3.80511000  1.93090000  2.05039000  1
  Mo  Mo8  1  0.10680900  3.58813000  -0.03247140  1
  Mo  Mo9  1  1.83104000  5.47114000  3.63223000  1
  Mo  Mo10  1  1.85975000  3.65843000  1.91433000  1
  Mo  Mo11  1  7.22349000  5.52219000  1.63566000  1
  Mo  Mo12  1  3.48937000  3.57314000  3.58680000  1
  Mo  Mo13  1  5.29791000  5.40624000  3.44249000  1
  Mo  Mo14  1  5.58888000  3.62143000  1.84560000  1
  Mo  Mo15  1  3.49706000  5.52188000  1.89561000  1
