# generated using pymatgen
data_Mo
_symmetry_space_group_name_H-M   'P 1'
_cell_length_a   7.33357816
_cell_length_b   7.33357816
_cell_length_c   3.66678905
_cell_angle_alpha   90.00000000
_cell_angle_beta   90.00000000
_cell_angle_gamma   90.00000000
_symmetry_Int_Tables_number   1
_chemical_formula_structural   Mo
_chemical_formula_sum   Mo16
_cell_volume   197.20493385
_cell_formula_units_Z   16
loop_
 _symmetry_equiv_pos_site_id
 _symmetry_equiv_pos_as_xyz
  1  'x, y, z'
loop_
 _atom_site_type_symbol
 _atom_site_label
 _atom_site_symmetry_multiplicity
 _atom_site_fract_x
 _atom_site_fract_y
 _atom_site_fract_z
 _atom_site_occupancy
  Mo  Mo0  1  0.01389940  7.20255000  0.03460130  1
  Mo  Mo1  1  1.83064000  1.79748000  3.59437000  1
  Mo  Mo2  1  1.82503000  -0.05333800  1.87163000  1
  Mo  Mo3  1  7.23181000  1.63634000  1.84042000  1
  Mo  Mo4  1  3.65591000  7.41841000  -0.06900920  1
  Mo  Mo5  1  5.46953000  1.85463000  0.02667110  1
  Mo  Mo6  1  5.48385000  7.37268000  1.79863000  1
  Mo  Mo7  1  3.37688000  2.00419000  1.72666000  1
  Mo  Mo8  1  0.04894320  3.60918000  0.14892200  1
  Mo  Mo9  1  1.96630000  5.42509000  3.65576000  1
  Mo  Mo10  1  1.59148000  3.55343000  1.66299000  1
  Mo  Mo11  1  7.37094000  5.50456000  1.78911000  1
  Mo  Mo12  1  3.72630000  3.90120000  3.62003000  1
  Mo  Mo13  1  5.40057000  5.44828000  3.63457000  1
  Mo  Mo14  1  5.61091000  3.38301000  1.91689000  1
  Mo  Mo15  1  3.62100000  5.49989000  1.85976000  1
