# generated using pymatgen
data_Mo
_symmetry_space_group_name_H-M   'P 1'
_cell_length_a   7.33357816
_cell_length_b   7.33357816
_cell_length_c   3.66678905
_cell_angle_alpha   90.00000000
_cell_angle_beta   90.00000000
_cell_angle_gamma   90.00000000
_symmetry_Int_Tables_number   1
_chemical_formula_structural   Mo
_chemical_formula_sum   Mo16
_cell_volume   197.20493385
_cell_formula_units_Z   16
loop_
 _symmetry_equiv_pos_site_id
 _symmetry_equiv_pos_as_xyz
  1  'x, y, z'
loop_
 _atom_site_type_symbol
 _atom_site_label
 _atom_site_symmetry_multiplicity
 _atom_site_fract_x
 _atom_site_fract_y
 _atom_site_fract_z
 _atom_site_occupancy
  Mo  Mo0  1  -0.14042800  7.24222000  -0.07741920  1
  Mo  Mo1  1  1.96188000  1.72069000  3.63066000  1
  Mo  Mo2  1  1.66879000  -0.11058600  1.89697000  1
  Mo  Mo3  1  7.50434000  1.88317000  1.83389000  1
  Mo  Mo4  1  3.49132000  7.30695000  0.06231260  1
  Mo  Mo5  1  5.57528000  1.89688000  -0.08980310  1
  Mo  Mo6  1  5.50999000  7.44587000  1.81136000  1
  Mo  Mo7  1  3.70193000  1.67604000  1.84932000  1
  Mo  Mo8  1  -0.09604840  3.58453000  0.05364660  1
  Mo  Mo9  1  1.77747000  5.55894000  3.73099000  1
  Mo  Mo10  1  1.78612000  3.70657000  1.84494000  1
  Mo  Mo11  1  7.27019000  5.46473000  1.92029000  1
  Mo  Mo12  1  3.68153000  3.68076000  3.41034000  1
  Mo  Mo13  1  5.47207000  5.46055000  3.71482000  1
  Mo  Mo14  1  5.61320000  3.61054000  1.75458000  1
  Mo  Mo15  1  3.44636000  5.42972000  1.76511000  1
