# generated using pymatgen
data_Mo
_symmetry_space_group_name_H-M   'P 1'
_cell_length_a   7.33357816
_cell_length_b   7.33357816
_cell_length_c   3.66678905
_cell_angle_alpha   90.00000000
_cell_angle_beta   90.00000000
_cell_angle_gamma   90.00000000
_symmetry_Int_Tables_number   1
_chemical_formula_structural   Mo
_chemical_formula_sum   Mo16
_cell_volume   197.20493385
_cell_formula_units_Z   16
loop_
 _symmetry_equiv_pos_site_id
 _symmetry_equiv_pos_as_xyz
  1  'x, y, z'
loop_
 _atom_site_type_symbol
 _atom_site_label
 _atom_site_symmetry_multiplicity
 _atom_site_fract_x
 _atom_site_fract_y
 _atom_site_fract_z
 _atom_site_occupancy
  Mo  Mo0  1  -0.09923710  7.35225000  -0.11325600  1
  Mo  Mo1  1  1.79828000  1.93437000  3.69981000  1
  Mo  Mo2  1  1.88516000  0.08331600  1.91597000  1
  Mo  Mo3  1  7.23361000  1.74544000  1.67900000  1
  Mo  Mo4  1  3.62564000  7.18652000  0.09569610  1
  Mo  Mo5  1  5.64069000  1.83100000  -0.19451100  1
  Mo  Mo6  1  5.26604000  7.34376000  1.62879000  1
  Mo  Mo7  1  3.62241000  1.92876000  1.86453000  1
  Mo  Mo8  1  -0.02888950  3.70126000  0.10802100  1
  Mo  Mo9  1  1.77542000  5.28011000  3.67241000  1
  Mo  Mo10  1  1.77674000  3.52990000  2.10501000  1
  Mo  Mo11  1  7.24176000  5.60107000  1.62844000  1
  Mo  Mo12  1  3.86562000  3.58177000  3.73616000  1
  Mo  Mo13  1  5.36212000  5.43429000  3.55724000  1
  Mo  Mo14  1  5.59042000  3.55520000  1.72436000  1
  Mo  Mo15  1  3.66821000  5.46855000  2.00432000  1
