# generated using pymatgen
data_Mo
_symmetry_space_group_name_H-M   'P 1'
_cell_length_a   7.33357816
_cell_length_b   7.33357816
_cell_length_c   3.66678905
_cell_angle_alpha   90.00000000
_cell_angle_beta   90.00000000
_cell_angle_gamma   90.00000000
_symmetry_Int_Tables_number   1
_chemical_formula_structural   Mo
_chemical_formula_sum   Mo16
_cell_volume   197.20493385
_cell_formula_units_Z   16
loop_
 _symmetry_equiv_pos_site_id
 _symmetry_equiv_pos_as_xyz
  1  'x, y, z'
loop_
 _atom_site_type_symbol
 _atom_site_label
 _atom_site_symmetry_multiplicity
 _atom_site_fract_x
 _atom_site_fract_y
 _atom_site_fract_z
 _atom_site_occupancy
  Mo  Mo0  1  -0.12846600  7.38288000  0.01519240  1
  Mo  Mo1  1  1.92540000  1.65784000  3.74711000  1
  Mo  Mo2  1  1.89858000  0.07283550  1.81662000  1
  Mo  Mo3  1  7.40052000  1.84508000  1.92320000  1
  Mo  Mo4  1  3.79234000  7.38965000  -0.07886490  1
  Mo  Mo5  1  5.46658000  1.75086000  0.18905400  1
  Mo  Mo6  1  5.46594000  7.29400000  1.79014000  1
  Mo  Mo7  1  3.65278000  1.85748000  1.99823000  1
  Mo  Mo8  1  -0.06751110  3.57505000  0.01190190  1
  Mo  Mo9  1  1.74911000  5.64920000  3.53436000  1
  Mo  Mo10  1  1.56306000  3.59261000  1.69520000  1
  Mo  Mo11  1  7.31583000  5.62497000  1.73782000  1
  Mo  Mo12  1  3.40901000  3.61494000  3.53627000  1
  Mo  Mo13  1  5.51236000  5.36876000  3.59196000  1
  Mo  Mo14  1  5.50309000  3.65349000  1.85524000  1
  Mo  Mo15  1  3.76539000  5.22794000  1.74857000  1
