# generated using pymatgen
data_Mo
_symmetry_space_group_name_H-M   'P 1'
_cell_length_a   7.33357816
_cell_length_b   7.33357816
_cell_length_c   3.66678905
_cell_angle_alpha   90.00000000
_cell_angle_beta   90.00000000
_cell_angle_gamma   90.00000000
_symmetry_Int_Tables_number   1
_chemical_formula_structural   Mo
_chemical_formula_sum   Mo16
_cell_volume   197.20493385
_cell_formula_units_Z   16
loop_
 _symmetry_equiv_pos_site_id
 _symmetry_equiv_pos_as_xyz
  1  'x, y, z'
loop_
 _atom_site_type_symbol
 _atom_site_label
 _atom_site_symmetry_multiplicity
 _atom_site_fract_x
 _atom_site_fract_y
 _atom_site_fract_z
 _atom_site_occupancy
  Mo  Mo0  1  0.02563420  7.38974000  0.01943740  1
  Mo  Mo1  1  1.89819000  1.74291000  3.61677000  1
  Mo  Mo2  1  1.60811000  -0.05570190  1.85689000  1
  Mo  Mo3  1  7.24184000  1.96409000  1.98151000  1
  Mo  Mo4  1  3.74522000  7.32097000  -0.12838200  1
  Mo  Mo5  1  5.50513000  1.79738000  0.16266100  1
  Mo  Mo6  1  5.60790000  7.34466000  1.79227000  1
  Mo  Mo7  1  3.61920000  1.87870000  1.68179000  1
  Mo  Mo8  1  -0.12265500  3.70099000  -0.08821490  1
  Mo  Mo9  1  1.89806000  5.43408000  3.59054000  1
  Mo  Mo10  1  1.74306000  3.71573000  1.87824000  1
  Mo  Mo11  1  7.32020000  5.35511000  1.71671000  1
  Mo  Mo12  1  3.68275000  3.49862000  3.68933000  1
  Mo  Mo13  1  5.32941000  5.34164000  3.64537000  1
  Mo  Mo14  1  5.39925000  3.64391000  1.98882000  1
  Mo  Mo15  1  3.72271000  5.48474000  1.70826000  1
