# generated using pymatgen
data_Mo
_symmetry_space_group_name_H-M   'P 1'
_cell_length_a   7.33357816
_cell_length_b   7.33357816
_cell_length_c   3.66678905
_cell_angle_alpha   90.00000000
_cell_angle_beta   90.00000000
_cell_angle_gamma   90.00000000
_symmetry_Int_Tables_number   1
_chemical_formula_structural   Mo
_chemical_formula_sum   Mo16
_cell_volume   197.20493385
_cell_formula_units_Z   16
loop_
 _symmetry_equiv_pos_site_id
 _symmetry_equiv_pos_as_xyz
  1  'x, y, z'
loop_
 _atom_site_type_symbol
 _atom_site_label
 _atom_site_symmetry_multiplicity
 _atom_site_fract_x
 _atom_site_fract_y
 _atom_site_fract_z
 _atom_site_occupancy
  Mo  Mo0  1  0.05019280  7.32192000  0.09483160  1
  Mo  Mo1  1  1.74481000  1.89382000  3.62817000  1
  Mo  Mo2  1  1.94688000  -0.02022840  1.74872000  1
  Mo  Mo3  1  7.26501000  1.66754000  1.79777000  1
  Mo  Mo4  1  3.77970000  7.41650000  -0.09482190  1
  Mo  Mo5  1  5.48119000  1.87476000  -0.13261500  1
  Mo  Mo6  1  5.64484000  7.18477000  1.94049000  1
  Mo  Mo7  1  3.68162000  1.69791000  1.83060000  1
  Mo  Mo8  1  -0.27665600  3.49666000  -0.02600340  1
  Mo  Mo9  1  1.75592000  5.45117000  3.79897000  1
  Mo  Mo10  1  1.82349000  3.72766000  1.68068000  1
  Mo  Mo11  1  7.22519000  5.61895000  1.94056000  1
  Mo  Mo12  1  3.67624000  3.66363000  3.50509000  1
  Mo  Mo13  1  5.45920000  5.44296000  3.77059000  1
  Mo  Mo14  1  5.33222000  3.69425000  1.81433000  1
  Mo  Mo15  1  3.63414000  5.42531000  1.81465000  1
