# generated using pymatgen
data_Mo
_symmetry_space_group_name_H-M   'P 1'
_cell_length_a   7.29789726
_cell_length_b   7.29789726
_cell_length_c   3.64894867
_cell_angle_alpha   90.00000000
_cell_angle_beta   90.00000000
_cell_angle_gamma   90.00000000
_symmetry_Int_Tables_number   1
_chemical_formula_structural   Mo
_chemical_formula_sum   Mo16
_cell_volume   194.34046797
_cell_formula_units_Z   16
loop_
 _symmetry_equiv_pos_site_id
 _symmetry_equiv_pos_as_xyz
  1  'x, y, z'
loop_
 _atom_site_type_symbol
 _atom_site_label
 _atom_site_symmetry_multiplicity
 _atom_site_fract_x
 _atom_site_fract_y
 _atom_site_fract_z
 _atom_site_occupancy
  Mo  Mo0  1  7.33978000  -0.14613000  0.03183500  1
  Mo  Mo1  1  1.74233000  1.95812000  -0.06556920  1
  Mo  Mo2  1  1.81147000  7.44382000  1.77894000  1
  Mo  Mo3  1  7.33317000  1.72073000  1.76349000  1
  Mo  Mo4  1  3.64542000  7.37520000  3.79092000  1
  Mo  Mo5  1  5.67632000  1.70728000  0.00033531  1
  Mo  Mo6  1  5.32476000  7.27229000  1.84882000  1
  Mo  Mo7  1  3.70810000  1.82750000  1.82411000  1
  Mo  Mo8  1  7.25311000  3.62980000  3.55091000  1
  Mo  Mo9  1  1.70441000  5.40884000  0.00800350  1
  Mo  Mo10  1  1.82789000  3.86042000  1.84737000  1
  Mo  Mo11  1  7.14929000  5.38551000  1.78733000  1
  Mo  Mo12  1  3.73519000  3.65165000  -0.07666230  1
  Mo  Mo13  1  5.47176000  5.45533000  3.63695000  1
  Mo  Mo14  1  5.53443000  3.36401000  1.88154000  1
  Mo  Mo15  1  3.56237000  5.60750000  1.85472000  1
