# generated using pymatgen
data_Mo
_symmetry_space_group_name_H-M   'P 1'
_cell_length_a   7.33357816
_cell_length_b   7.33357816
_cell_length_c   3.66678905
_cell_angle_alpha   90.00000000
_cell_angle_beta   90.00000000
_cell_angle_gamma   90.00000000
_symmetry_Int_Tables_number   1
_chemical_formula_structural   Mo
_chemical_formula_sum   Mo16
_cell_volume   197.20493385
_cell_formula_units_Z   16
loop_
 _symmetry_equiv_pos_site_id
 _symmetry_equiv_pos_as_xyz
  1  'x, y, z'
loop_
 _atom_site_type_symbol
 _atom_site_label
 _atom_site_symmetry_multiplicity
 _atom_site_fract_x
 _atom_site_fract_y
 _atom_site_fract_z
 _atom_site_occupancy
  Mo  Mo0  1  0.01236310  7.36367000  0.00461842  1
  Mo  Mo1  1  1.71792000  1.91810000  3.59019000  1
  Mo  Mo2  1  1.69203000  -0.12847000  1.60798000  1
  Mo  Mo3  1  7.41037000  1.74498000  1.76742000  1
  Mo  Mo4  1  3.70757000  7.50150000  -0.03762940  1
  Mo  Mo5  1  5.47387000  1.69484000  0.04410780  1
  Mo  Mo6  1  5.47109000  7.14911000  1.87538000  1
  Mo  Mo7  1  3.67021000  1.86108000  1.87884000  1
  Mo  Mo8  1  -0.09375530  3.68125000  -0.05600410  1
  Mo  Mo9  1  1.90821000  5.45676000  3.51092000  1
  Mo  Mo10  1  1.84731000  3.71166000  1.87128000  1
  Mo  Mo11  1  7.33201000  5.53463000  1.96810000  1
  Mo  Mo12  1  3.66540000  3.67478000  3.71691000  1
  Mo  Mo13  1  5.44131000  5.55522000  3.59457000  1
  Mo  Mo14  1  5.49360000  3.39545000  1.93968000  1
  Mo  Mo15  1  3.47449000  5.44304000  1.83564000  1
