# generated using pymatgen
data_Mo
_symmetry_space_group_name_H-M   'P 1'
_cell_length_a   7.33357816
_cell_length_b   7.33357816
_cell_length_c   3.66678905
_cell_angle_alpha   90.00000000
_cell_angle_beta   90.00000000
_cell_angle_gamma   90.00000000
_symmetry_Int_Tables_number   1
_chemical_formula_structural   Mo
_chemical_formula_sum   Mo16
_cell_volume   197.20493385
_cell_formula_units_Z   16
loop_
 _symmetry_equiv_pos_site_id
 _symmetry_equiv_pos_as_xyz
  1  'x, y, z'
loop_
 _atom_site_type_symbol
 _atom_site_label
 _atom_site_symmetry_multiplicity
 _atom_site_fract_x
 _atom_site_fract_y
 _atom_site_fract_z
 _atom_site_occupancy
  Mo  Mo0  1  -0.04544190  7.28083000  0.11795500  1
  Mo  Mo1  1  1.79098000  1.72427000  3.58631000  1
  Mo  Mo2  1  1.69640000  -0.01177210  1.96719000  1
  Mo  Mo3  1  7.43973000  1.70258000  1.80167000  1
  Mo  Mo4  1  3.56308000  7.35877000  -0.11655100  1
  Mo  Mo5  1  5.65038000  1.56356000  0.02643210  1
  Mo  Mo6  1  5.47966000  7.34318000  1.82600000  1
  Mo  Mo7  1  3.56594000  1.96787000  1.68940000  1
  Mo  Mo8  1  0.00527620  3.70052000  -0.02716650  1
  Mo  Mo9  1  1.77069000  5.40422000  3.46369000  1
  Mo  Mo10  1  1.64514000  3.71601000  1.83898000  1
  Mo  Mo11  1  7.43939000  5.38663000  1.95257000  1
  Mo  Mo12  1  3.66804000  3.74394000  3.60624000  1
  Mo  Mo13  1  5.39741000  5.49183000  3.74989000  1
  Mo  Mo14  1  5.56679000  3.68471000  1.87528000  1
  Mo  Mo15  1  3.59055000  5.50043000  1.75412000  1
