# generated using pymatgen
data_Mo
_symmetry_space_group_name_H-M   'P 1'
_cell_length_a   7.33357816
_cell_length_b   7.33357816
_cell_length_c   3.66678905
_cell_angle_alpha   90.00000000
_cell_angle_beta   90.00000000
_cell_angle_gamma   90.00000000
_symmetry_Int_Tables_number   1
_chemical_formula_structural   Mo
_chemical_formula_sum   Mo16
_cell_volume   197.20493385
_cell_formula_units_Z   16
loop_
 _symmetry_equiv_pos_site_id
 _symmetry_equiv_pos_as_xyz
  1  'x, y, z'
loop_
 _atom_site_type_symbol
 _atom_site_label
 _atom_site_symmetry_multiplicity
 _atom_site_fract_x
 _atom_site_fract_y
 _atom_site_fract_z
 _atom_site_occupancy
  Mo  Mo0  1  0.09176590  7.42097000  0.05731870  1
  Mo  Mo1  1  1.75359000  1.82945000  3.52849000  1
  Mo  Mo2  1  1.85128000  -0.12895800  1.88603000  1
  Mo  Mo3  1  7.31219000  2.04827000  1.65854000  1
  Mo  Mo4  1  3.55669000  7.33106000  0.04971280  1
  Mo  Mo5  1  5.53486000  1.69490000  -0.09018840  1
  Mo  Mo6  1  5.38462000  7.28213000  1.85476000  1
  Mo  Mo7  1  3.60698000  1.80099000  1.66244000  1
  Mo  Mo8  1  0.02743690  3.61471000  -0.00428245  1
  Mo  Mo9  1  1.77733000  5.30525000  3.78864000  1
  Mo  Mo10  1  1.76231000  3.64716000  1.82554000  1
  Mo  Mo11  1  7.39022000  5.47276000  1.89593000  1
  Mo  Mo12  1  3.75164000  3.72860000  3.56210000  1
  Mo  Mo13  1  5.46167000  5.47133000  3.88326000  1
  Mo  Mo14  1  5.49535000  3.63525000  1.68276000  1
  Mo  Mo15  1  3.46607000  5.40370000  1.87096000  1
