# generated using pymatgen
data_Mo
_symmetry_space_group_name_H-M   'P 1'
_cell_length_a   7.33357816
_cell_length_b   7.33357816
_cell_length_c   3.66678905
_cell_angle_alpha   90.00000000
_cell_angle_beta   90.00000000
_cell_angle_gamma   90.00000000
_symmetry_Int_Tables_number   1
_chemical_formula_structural   Mo
_chemical_formula_sum   Mo16
_cell_volume   197.20493385
_cell_formula_units_Z   16
loop_
 _symmetry_equiv_pos_site_id
 _symmetry_equiv_pos_as_xyz
  1  'x, y, z'
loop_
 _atom_site_type_symbol
 _atom_site_label
 _atom_site_symmetry_multiplicity
 _atom_site_fract_x
 _atom_site_fract_y
 _atom_site_fract_z
 _atom_site_occupancy
  Mo  Mo0  1  -0.03914140  7.33127000  -0.03690750  1
  Mo  Mo1  1  1.84558000  1.76919000  3.73771000  1
  Mo  Mo2  1  1.77719000  -0.00639955  1.86070000  1
  Mo  Mo3  1  7.24011000  1.99212000  1.74676000  1
  Mo  Mo4  1  3.41133000  7.16624000  -0.04464730  1
  Mo  Mo5  1  5.44820000  1.66927000  0.06729730  1
  Mo  Mo6  1  5.38652000  7.31995000  1.85725000  1
  Mo  Mo7  1  3.56242000  1.72096000  1.94200000  1
  Mo  Mo8  1  -0.08138810  3.70877000  -0.09419060  1
  Mo  Mo9  1  1.70780000  5.51520000  3.46335000  1
  Mo  Mo10  1  2.00342000  3.41817000  1.75224000  1
  Mo  Mo11  1  7.31408000  5.70288000  1.74792000  1
  Mo  Mo12  1  3.93553000  3.69807000  3.73782000  1
  Mo  Mo13  1  5.47318000  5.65924000  3.73211000  1
  Mo  Mo14  1  5.53849000  3.51788000  1.79684000  1
  Mo  Mo15  1  3.70067000  5.37478000  1.84574000  1
