# generated using pymatgen
data_Mo
_symmetry_space_group_name_H-M   'P 1'
_cell_length_a   7.33357816
_cell_length_b   7.33357816
_cell_length_c   3.66678905
_cell_angle_alpha   90.00000000
_cell_angle_beta   90.00000000
_cell_angle_gamma   90.00000000
_symmetry_Int_Tables_number   1
_chemical_formula_structural   Mo
_chemical_formula_sum   Mo16
_cell_volume   197.20493385
_cell_formula_units_Z   16
loop_
 _symmetry_equiv_pos_site_id
 _symmetry_equiv_pos_as_xyz
  1  'x, y, z'
loop_
 _atom_site_type_symbol
 _atom_site_label
 _atom_site_symmetry_multiplicity
 _atom_site_fract_x
 _atom_site_fract_y
 _atom_site_fract_z
 _atom_site_occupancy
  Mo  Mo0  1  0.04093760  7.37728000  0.05013610  1
  Mo  Mo1  1  1.77469000  1.87967000  3.68041000  1
  Mo  Mo2  1  1.79396000  -0.17003700  1.92054000  1
  Mo  Mo3  1  7.28838000  1.97099000  1.78904000  1
  Mo  Mo4  1  3.58872000  7.35340000  0.07082510  1
  Mo  Mo5  1  5.61083000  1.80245000  0.12401200  1
  Mo  Mo6  1  5.64753000  7.34432000  1.66305000  1
  Mo  Mo7  1  3.57300000  1.76349000  1.94073000  1
  Mo  Mo8  1  -0.04177280  3.80469000  0.08667450  1
  Mo  Mo9  1  1.79845000  5.37618000  3.69288000  1
  Mo  Mo10  1  1.74930000  3.49222000  1.65366000  1
  Mo  Mo11  1  7.28577000  5.47376000  1.82601000  1
  Mo  Mo12  1  3.74216000  3.57047000  3.60568000  1
  Mo  Mo13  1  5.45760000  5.57743000  3.62497000  1
  Mo  Mo14  1  5.44676000  3.68537000  1.67997000  1
  Mo  Mo15  1  3.46769000  5.25589000  1.70341000  1
