# generated using pymatgen
data_Mo
_symmetry_space_group_name_H-M   'P 1'
_cell_length_a   7.33357816
_cell_length_b   7.33357816
_cell_length_c   3.66678905
_cell_angle_alpha   90.00000000
_cell_angle_beta   90.00000000
_cell_angle_gamma   90.00000000
_symmetry_Int_Tables_number   1
_chemical_formula_structural   Mo
_chemical_formula_sum   Mo16
_cell_volume   197.20493385
_cell_formula_units_Z   16
loop_
 _symmetry_equiv_pos_site_id
 _symmetry_equiv_pos_as_xyz
  1  'x, y, z'
loop_
 _atom_site_type_symbol
 _atom_site_label
 _atom_site_symmetry_multiplicity
 _atom_site_fract_x
 _atom_site_fract_y
 _atom_site_fract_z
 _atom_site_occupancy
  Mo  Mo0  1  -0.15126500  7.35873000  -0.15260700  1
  Mo  Mo1  1  1.68860000  1.90104000  3.49962000  1
  Mo  Mo2  1  1.73090000  0.05945370  1.67124000  1
  Mo  Mo3  1  7.44542000  1.90855000  1.62292000  1
  Mo  Mo4  1  3.63076000  7.18476000  0.02655390  1
  Mo  Mo5  1  5.51349000  1.77163000  0.07193760  1
  Mo  Mo6  1  5.37715000  7.52640000  1.98606000  1
  Mo  Mo7  1  3.57118000  1.74009000  1.74616000  1
  Mo  Mo8  1  0.01800580  3.68403000  -0.06259670  1
  Mo  Mo9  1  1.68551000  5.36286000  3.65352000  1
  Mo  Mo10  1  2.12065000  3.71083000  1.85969000  1
  Mo  Mo11  1  7.30306000  5.51770000  1.87903000  1
  Mo  Mo12  1  3.68158000  3.37387000  3.68597000  1
  Mo  Mo13  1  5.58405000  5.47604000  3.80921000  1
  Mo  Mo14  1  5.49452000  3.60564000  1.87432000  1
  Mo  Mo15  1  3.53038000  5.37596000  1.94097000  1
