# generated using pymatgen
data_Mo
_symmetry_space_group_name_H-M   'P 1'
_cell_length_a   7.33357816
_cell_length_b   7.33357816
_cell_length_c   3.66678905
_cell_angle_alpha   90.00000000
_cell_angle_beta   90.00000000
_cell_angle_gamma   90.00000000
_symmetry_Int_Tables_number   1
_chemical_formula_structural   Mo
_chemical_formula_sum   Mo16
_cell_volume   197.20493385
_cell_formula_units_Z   16
loop_
 _symmetry_equiv_pos_site_id
 _symmetry_equiv_pos_as_xyz
  1  'x, y, z'
loop_
 _atom_site_type_symbol
 _atom_site_label
 _atom_site_symmetry_multiplicity
 _atom_site_fract_x
 _atom_site_fract_y
 _atom_site_fract_z
 _atom_site_occupancy
  Mo  Mo0  1  0.02106940  7.34473000  -0.08355470  1
  Mo  Mo1  1  1.93578000  1.64553000  3.52428000  1
  Mo  Mo2  1  1.81443000  -0.23750400  1.71040000  1
  Mo  Mo3  1  7.27760000  1.88865000  1.87619000  1
  Mo  Mo4  1  3.56786000  7.20744000  0.07213870  1
  Mo  Mo5  1  5.55556000  1.87585000  -0.02379920  1
  Mo  Mo6  1  5.49843000  7.51124000  1.79784000  1
  Mo  Mo7  1  3.60437000  1.71663000  1.76367000  1
  Mo  Mo8  1  0.09389800  3.51322000  0.09681050  1
  Mo  Mo9  1  1.55857000  5.54224000  3.57525000  1
  Mo  Mo10  1  1.89875000  3.61843000  1.79846000  1
  Mo  Mo11  1  7.31289000  5.59181000  2.04413000  1
  Mo  Mo12  1  3.46603000  3.65964000  3.59192000  1
  Mo  Mo13  1  5.55697000  5.42344000  3.71711000  1
  Mo  Mo14  1  5.36492000  3.67539000  1.87857000  1
  Mo  Mo15  1  3.69686000  5.58084000  1.77259000  1
