# generated using pymatgen
data_Mo
_symmetry_space_group_name_H-M   'P 1'
_cell_length_a   7.33357816
_cell_length_b   7.33357816
_cell_length_c   3.66678905
_cell_angle_alpha   90.00000000
_cell_angle_beta   90.00000000
_cell_angle_gamma   90.00000000
_symmetry_Int_Tables_number   1
_chemical_formula_structural   Mo
_chemical_formula_sum   Mo16
_cell_volume   197.20493385
_cell_formula_units_Z   16
loop_
 _symmetry_equiv_pos_site_id
 _symmetry_equiv_pos_as_xyz
  1  'x, y, z'
loop_
 _atom_site_type_symbol
 _atom_site_label
 _atom_site_symmetry_multiplicity
 _atom_site_fract_x
 _atom_site_fract_y
 _atom_site_fract_z
 _atom_site_occupancy
  Mo  Mo0  1  0.01044700  7.35017000  -0.02958050  1
  Mo  Mo1  1  1.69999000  1.78622000  3.69221000  1
  Mo  Mo2  1  1.97986000  -0.26224100  1.86045000  1
  Mo  Mo3  1  7.26769000  1.78607000  1.83581000  1
  Mo  Mo4  1  3.57749000  7.23218000  0.08618920  1
  Mo  Mo5  1  5.42522000  1.81005000  -0.03329430  1
  Mo  Mo6  1  5.37903000  7.47658000  1.68707000  1
  Mo  Mo7  1  3.50420000  2.01852000  1.72892000  1
  Mo  Mo8  1  -0.05865390  3.51828000  0.01853420  1
  Mo  Mo9  1  1.78237000  5.44110000  3.66900000  1
  Mo  Mo10  1  1.75049000  3.73329000  1.74924000  1
  Mo  Mo11  1  7.29562000  5.47047000  1.77552000  1
  Mo  Mo12  1  3.74072000  3.65300000  3.65916000  1
  Mo  Mo13  1  5.65880000  5.56153000  3.62726000  1
  Mo  Mo14  1  5.48801000  3.57207000  1.86289000  1
  Mo  Mo15  1  3.72271000  5.41029000  1.92263000  1
