# generated using pymatgen
data_Mo
_symmetry_space_group_name_H-M   'P 1'
_cell_length_a   7.29789726
_cell_length_b   7.29789726
_cell_length_c   3.64894867
_cell_angle_alpha   90.00000000
_cell_angle_beta   90.00000000
_cell_angle_gamma   90.00000000
_symmetry_Int_Tables_number   1
_chemical_formula_structural   Mo
_chemical_formula_sum   Mo16
_cell_volume   194.34046797
_cell_formula_units_Z   16
loop_
 _symmetry_equiv_pos_site_id
 _symmetry_equiv_pos_as_xyz
  1  'x, y, z'
loop_
 _atom_site_type_symbol
 _atom_site_label
 _atom_site_symmetry_multiplicity
 _atom_site_fract_x
 _atom_site_fract_y
 _atom_site_fract_z
 _atom_site_occupancy
  Mo  Mo0  1  7.11985000  0.01188350  -0.09296900  1
  Mo  Mo1  1  1.87561000  1.73812000  -0.05178700  1
  Mo  Mo2  1  1.73806000  7.12506000  1.75196000  1
  Mo  Mo3  1  7.37713000  1.81914000  1.83341000  1
  Mo  Mo4  1  3.69124000  7.37526000  3.63791000  1
  Mo  Mo5  1  5.55535000  1.83226000  0.04764980  1
  Mo  Mo6  1  5.42050000  7.28623000  1.74428000  1
  Mo  Mo7  1  3.48772000  1.76985000  1.96617000  1
  Mo  Mo8  1  7.34759000  3.78642000  3.57861000  1
  Mo  Mo9  1  1.89484000  5.48596000  0.14152600  1
  Mo  Mo10  1  1.84300000  3.69167000  1.86411000  1
  Mo  Mo11  1  7.19907000  5.40706000  1.75747000  1
  Mo  Mo12  1  3.66123000  3.66160000  0.01787240  1
  Mo  Mo13  1  5.41260000  5.58737000  3.55580000  1
  Mo  Mo14  1  5.49314000  3.50262000  1.83894000  1
  Mo  Mo15  1  3.70288000  5.44139000  1.87208000  1
