# generated using pymatgen
data_Mo
_symmetry_space_group_name_H-M   'P 1'
_cell_length_a   7.33357816
_cell_length_b   7.33357816
_cell_length_c   3.66678905
_cell_angle_alpha   90.00000000
_cell_angle_beta   90.00000000
_cell_angle_gamma   90.00000000
_symmetry_Int_Tables_number   1
_chemical_formula_structural   Mo
_chemical_formula_sum   Mo16
_cell_volume   197.20493385
_cell_formula_units_Z   16
loop_
 _symmetry_equiv_pos_site_id
 _symmetry_equiv_pos_as_xyz
  1  'x, y, z'
loop_
 _atom_site_type_symbol
 _atom_site_label
 _atom_site_symmetry_multiplicity
 _atom_site_fract_x
 _atom_site_fract_y
 _atom_site_fract_z
 _atom_site_occupancy
  Mo  Mo0  1  0.17031100  7.39553000  0.00312697  1
  Mo  Mo1  1  1.84620000  1.92092000  3.79661000  1
  Mo  Mo2  1  1.86430000  -0.05397780  1.79036000  1
  Mo  Mo3  1  7.13360000  1.75527000  1.80122000  1
  Mo  Mo4  1  3.57713000  7.35400000  -0.21127700  1
  Mo  Mo5  1  5.49918000  1.70690000  0.00721098  1
  Mo  Mo6  1  5.48767000  7.13109000  1.86453000  1
  Mo  Mo7  1  3.55817000  1.92009000  1.84425000  1
  Mo  Mo8  1  -0.25248600  3.35244000  0.02931700  1
  Mo  Mo9  1  1.75357000  5.46687000  3.54096000  1
  Mo  Mo10  1  1.83673000  3.57336000  1.84971000  1
  Mo  Mo11  1  7.26631000  5.40914000  1.84823000  1
  Mo  Mo12  1  3.74806000  3.74804000  3.72623000  1
  Mo  Mo13  1  5.48646000  5.50066000  3.68799000  1
  Mo  Mo14  1  5.51565000  3.76182000  1.90095000  1
  Mo  Mo15  1  3.73316000  5.61543000  1.63258000  1
