# generated using pymatgen
data_Mo
_symmetry_space_group_name_H-M   'P 1'
_cell_length_a   7.33670808
_cell_length_b   7.33670808
_cell_length_c   3.66835403
_cell_angle_alpha   90.00000000
_cell_angle_beta   90.00000000
_cell_angle_gamma   90.00000000
_symmetry_Int_Tables_number   1
_chemical_formula_structural   Mo
_chemical_formula_sum   Mo16
_cell_volume   197.45753985
_cell_formula_units_Z   16
loop_
 _symmetry_equiv_pos_site_id
 _symmetry_equiv_pos_as_xyz
  1  'x, y, z'
loop_
 _atom_site_type_symbol
 _atom_site_label
 _atom_site_symmetry_multiplicity
 _atom_site_fract_x
 _atom_site_fract_y
 _atom_site_fract_z
 _atom_site_occupancy
  Mo  Mo0  1  -0.14671400  7.24553000  3.66834000  1
  Mo  Mo1  1  1.75445000  1.75767000  3.64912000  1
  Mo  Mo2  1  1.84129000  -0.17443300  1.99964000  1
  Mo  Mo3  1  7.31090000  1.82168000  1.78933000  1
  Mo  Mo4  1  3.60652000  -0.13062300  -0.01602040  1
  Mo  Mo5  1  5.34653000  1.83590000  3.56674000  1
  Mo  Mo6  1  5.62942000  0.13269200  1.73817000  1
  Mo  Mo7  1  3.59102000  1.49438000  1.81538000  1
  Mo  Mo8  1  7.16587000  3.74501000  3.60690000  1
  Mo  Mo9  1  1.67322000  5.51693000  0.03597420  1
  Mo  Mo10  1  2.08821000  3.70300000  1.79044000  1
  Mo  Mo11  1  -0.00307140  5.53540000  1.90646000  1
  Mo  Mo12  1  3.73775000  3.48567000  3.54586000  1
  Mo  Mo13  1  5.45086000  5.70049000  -0.14416800  1
  Mo  Mo14  1  5.46114000  3.73356000  1.91802000  1
  Mo  Mo15  1  3.71661000  5.48443000  1.91019000  1
