# generated using pymatgen
data_Mo
_symmetry_space_group_name_H-M   'P 1'
_cell_length_a   7.33670808
_cell_length_b   7.33670808
_cell_length_c   3.66835403
_cell_angle_alpha   90.00000000
_cell_angle_beta   90.00000000
_cell_angle_gamma   90.00000000
_symmetry_Int_Tables_number   1
_chemical_formula_structural   Mo
_chemical_formula_sum   Mo16
_cell_volume   197.45753985
_cell_formula_units_Z   16
loop_
 _symmetry_equiv_pos_site_id
 _symmetry_equiv_pos_as_xyz
  1  'x, y, z'
loop_
 _atom_site_type_symbol
 _atom_site_label
 _atom_site_symmetry_multiplicity
 _atom_site_fract_x
 _atom_site_fract_y
 _atom_site_fract_z
 _atom_site_occupancy
  Mo  Mo0  1  -0.02029340  7.13275000  3.75433000  1
  Mo  Mo1  1  1.83188000  1.80360000  3.67051000  1
  Mo  Mo2  1  1.76728000  0.03832860  1.80364000  1
  Mo  Mo3  1  7.47335000  1.65298000  1.82357000  1
  Mo  Mo4  1  3.55315000  0.09609490  -0.14699100  1
  Mo  Mo5  1  5.34818000  1.62021000  3.58481000  1
  Mo  Mo6  1  5.58040000  -0.00286501  1.75870000  1
  Mo  Mo7  1  3.53448000  1.95464000  1.84769000  1
  Mo  Mo8  1  7.34983000  3.69885000  3.61036000  1
  Mo  Mo9  1  1.90578000  5.50086000  0.04452620  1
  Mo  Mo10  1  1.78652000  3.69082000  1.80525000  1
  Mo  Mo11  1  -0.22767200  5.46067000  1.86525000  1
  Mo  Mo12  1  3.62082000  3.89063000  3.85658000  1
  Mo  Mo13  1  5.42293000  5.40528000  0.03472320  1
  Mo  Mo14  1  5.54052000  3.47410000  1.62459000  1
  Mo  Mo15  1  3.75685000  5.47034000  1.84282000  1
