# generated using pymatgen
data_Mo
_symmetry_space_group_name_H-M   'P 1'
_cell_length_a   7.33670808
_cell_length_b   7.33670808
_cell_length_c   3.66835403
_cell_angle_alpha   90.00000000
_cell_angle_beta   90.00000000
_cell_angle_gamma   90.00000000
_symmetry_Int_Tables_number   1
_chemical_formula_structural   Mo
_chemical_formula_sum   Mo16
_cell_volume   197.45753985
_cell_formula_units_Z   16
loop_
 _symmetry_equiv_pos_site_id
 _symmetry_equiv_pos_as_xyz
  1  'x, y, z'
loop_
 _atom_site_type_symbol
 _atom_site_label
 _atom_site_symmetry_multiplicity
 _atom_site_fract_x
 _atom_site_fract_y
 _atom_site_fract_z
 _atom_site_occupancy
  Mo  Mo0  1  -0.00628561  7.39342000  3.55087000  1
  Mo  Mo1  1  1.83726000  1.55524000  3.57246000  1
  Mo  Mo2  1  2.09382000  -0.25166800  1.54863000  1
  Mo  Mo3  1  7.46212000  1.78892000  1.62538000  1
  Mo  Mo4  1  3.68733000  -0.05991460  0.00200463  1
  Mo  Mo5  1  5.46309000  1.94176000  3.67462000  1
  Mo  Mo6  1  5.33234000  0.12453000  1.99045000  1
  Mo  Mo7  1  3.68314000  1.85128000  1.74710000  1
  Mo  Mo8  1  7.30871000  3.44301000  3.60889000  1
  Mo  Mo9  1  1.61094000  5.49056000  -0.03048940  1
  Mo  Mo10  1  1.69390000  3.57519000  1.86735000  1
  Mo  Mo11  1  -0.01978230  5.48913000  1.86540000  1
  Mo  Mo12  1  3.50921000  3.84964000  3.76393000  1
  Mo  Mo13  1  5.39145000  5.60475000  0.15445900  1
  Mo  Mo14  1  5.58181000  3.72139000  1.97974000  1
  Mo  Mo15  1  3.59495000  5.37005000  1.85955000  1
