# generated using pymatgen
data_Mo
_symmetry_space_group_name_H-M   'P 1'
_cell_length_a   7.33670808
_cell_length_b   7.33670808
_cell_length_c   3.66835403
_cell_angle_alpha   90.00000000
_cell_angle_beta   90.00000000
_cell_angle_gamma   90.00000000
_symmetry_Int_Tables_number   1
_chemical_formula_structural   Mo
_chemical_formula_sum   Mo16
_cell_volume   197.45753985
_cell_formula_units_Z   16
loop_
 _symmetry_equiv_pos_site_id
 _symmetry_equiv_pos_as_xyz
  1  'x, y, z'
loop_
 _atom_site_type_symbol
 _atom_site_label
 _atom_site_symmetry_multiplicity
 _atom_site_fract_x
 _atom_site_fract_y
 _atom_site_fract_z
 _atom_site_occupancy
  Mo  Mo0  1  0.24256500  7.29093000  3.58031000  1
  Mo  Mo1  1  1.80226000  1.97697000  3.79717000  1
  Mo  Mo2  1  1.82284000  -0.04587240  1.70625000  1
  Mo  Mo3  1  7.22275000  1.90701000  1.77714000  1
  Mo  Mo4  1  3.59396000  -0.04250360  -0.26995900  1
  Mo  Mo5  1  5.59876000  1.59353000  3.77555000  1
  Mo  Mo6  1  5.32330000  -0.06337950  1.80897000  1
  Mo  Mo7  1  3.68108000  1.79363000  2.00654000  1
  Mo  Mo8  1  7.11428000  3.53753000  3.60014000  1
  Mo  Mo9  1  1.89209000  5.47246000  0.02292130  1
  Mo  Mo10  1  1.76333000  3.84791000  1.97708000  1
  Mo  Mo11  1  -0.13404400  5.48564000  1.79533000  1
  Mo  Mo12  1  3.65241000  3.58378000  3.67146000  1
  Mo  Mo13  1  5.56062000  5.45896000  -0.11537000  1
  Mo  Mo14  1  5.39137000  3.64413000  1.81405000  1
  Mo  Mo15  1  3.69641000  5.44658000  1.83276000  1
