# generated using pymatgen
data_Mo
_symmetry_space_group_name_H-M   'P 1'
_cell_length_a   7.33670808
_cell_length_b   7.33670808
_cell_length_c   3.66835403
_cell_angle_alpha   90.00000000
_cell_angle_beta   90.00000000
_cell_angle_gamma   90.00000000
_symmetry_Int_Tables_number   1
_chemical_formula_structural   Mo
_chemical_formula_sum   Mo16
_cell_volume   197.45753985
_cell_formula_units_Z   16
loop_
 _symmetry_equiv_pos_site_id
 _symmetry_equiv_pos_as_xyz
  1  'x, y, z'
loop_
 _atom_site_type_symbol
 _atom_site_label
 _atom_site_symmetry_multiplicity
 _atom_site_fract_x
 _atom_site_fract_y
 _atom_site_fract_z
 _atom_site_occupancy
  Mo  Mo0  1  0.18059200  7.25059000  3.79492000  1
  Mo  Mo1  1  1.93731000  1.92760000  3.76434000  1
  Mo  Mo2  1  1.73049000  0.19674400  2.00054000  1
  Mo  Mo3  1  7.25240000  1.80687000  1.83973000  1
  Mo  Mo4  1  3.38023000  -0.00787501  -0.00285225  1
  Mo  Mo5  1  5.40807000  1.52302000  3.65684000  1
  Mo  Mo6  1  5.52679000  -0.01134130  1.77572000  1
  Mo  Mo7  1  3.79945000  1.85774000  1.80868000  1
  Mo  Mo8  1  7.14328000  3.42557000  3.50941000  1
  Mo  Mo9  1  1.85625000  5.38592000  0.22782700  1
  Mo  Mo10  1  1.87445000  3.72209000  1.69459000  1
  Mo  Mo11  1  -0.11895100  5.44574000  1.80640000  1
  Mo  Mo12  1  3.60299000  3.59123000  3.43502000  1
  Mo  Mo13  1  5.50547000  5.43960000  0.02752920  1
  Mo  Mo14  1  5.38428000  3.70288000  1.57472000  1
  Mo  Mo15  1  3.76089000  5.63090000  1.86694000  1
