# generated using pymatgen
data_Mo
_symmetry_space_group_name_H-M   'P 1'
_cell_length_a   7.33670808
_cell_length_b   7.33670808
_cell_length_c   3.66835403
_cell_angle_alpha   90.00000000
_cell_angle_beta   90.00000000
_cell_angle_gamma   90.00000000
_symmetry_Int_Tables_number   1
_chemical_formula_structural   Mo
_chemical_formula_sum   Mo16
_cell_volume   197.45753985
_cell_formula_units_Z   16
loop_
 _symmetry_equiv_pos_site_id
 _symmetry_equiv_pos_as_xyz
  1  'x, y, z'
loop_
 _atom_site_type_symbol
 _atom_site_label
 _atom_site_symmetry_multiplicity
 _atom_site_fract_x
 _atom_site_fract_y
 _atom_site_fract_z
 _atom_site_occupancy
  Mo  Mo0  1  -0.16284100  6.95982000  3.68270000  1
  Mo  Mo1  1  1.68678000  1.87200000  3.72661000  1
  Mo  Mo2  1  1.76223000  0.00555657  1.87822000  1
  Mo  Mo3  1  7.24676000  1.92400000  1.91541000  1
  Mo  Mo4  1  3.59161000  -0.10242000  -0.10832900  1
  Mo  Mo5  1  5.43338000  1.85508000  3.64189000  1
  Mo  Mo6  1  5.60370000  0.00683642  1.87312000  1
  Mo  Mo7  1  3.63227000  1.88679000  1.69315000  1
  Mo  Mo8  1  7.31543000  3.79347000  3.69798000  1
  Mo  Mo9  1  1.81273000  5.36630000  0.02049180  1
  Mo  Mo10  1  2.03082000  3.71003000  1.99798000  1
  Mo  Mo11  1  0.06825770  5.32418000  1.79992000  1
  Mo  Mo12  1  3.62942000  3.71021000  3.69349000  1
  Mo  Mo13  1  5.50805000  5.47553000  -0.06350320  1
  Mo  Mo14  1  5.41444000  3.68517000  1.60627000  1
  Mo  Mo15  1  3.65096000  5.41473000  1.72494000  1
