# generated using pymatgen
data_Mo
_symmetry_space_group_name_H-M   'P 1'
_cell_length_a   7.33670808
_cell_length_b   7.33670808
_cell_length_c   3.66835403
_cell_angle_alpha   90.00000000
_cell_angle_beta   90.00000000
_cell_angle_gamma   90.00000000
_symmetry_Int_Tables_number   1
_chemical_formula_structural   Mo
_chemical_formula_sum   Mo16
_cell_volume   197.45753985
_cell_formula_units_Z   16
loop_
 _symmetry_equiv_pos_site_id
 _symmetry_equiv_pos_as_xyz
  1  'x, y, z'
loop_
 _atom_site_type_symbol
 _atom_site_label
 _atom_site_symmetry_multiplicity
 _atom_site_fract_x
 _atom_site_fract_y
 _atom_site_fract_z
 _atom_site_occupancy
  Mo  Mo0  1  -0.24781700  6.95201000  3.60780000  1
  Mo  Mo1  1  1.83349000  1.75009000  3.73983000  1
  Mo  Mo2  1  1.62693000  0.05450740  1.73468000  1
  Mo  Mo3  1  7.16289000  1.84749000  1.62672000  1
  Mo  Mo4  1  3.67121000  -0.00541128  0.03880670  1
  Mo  Mo5  1  5.38653000  1.90607000  3.57016000  1
  Mo  Mo6  1  5.46102000  -0.01569200  1.97439000  1
  Mo  Mo7  1  3.69468000  1.77340000  1.83610000  1
  Mo  Mo8  1  7.59832000  3.63717000  3.76684000  1
  Mo  Mo9  1  1.85822000  5.68430000  0.12111400  1
  Mo  Mo10  1  2.03770000  3.61039000  1.74687000  1
  Mo  Mo11  1  -0.01518600  5.26797000  1.93406000  1
  Mo  Mo12  1  3.67516000  3.70750000  3.68185000  1
  Mo  Mo13  1  5.37486000  5.41096000  -0.11527200  1
  Mo  Mo14  1  5.50869000  3.64381000  1.68190000  1
  Mo  Mo15  1  3.59731000  5.66272000  1.83451000  1
