# generated using pymatgen
data_Mo
_symmetry_space_group_name_H-M   'P 1'
_cell_length_a   7.33670808
_cell_length_b   7.33670808
_cell_length_c   3.66835403
_cell_angle_alpha   90.00000000
_cell_angle_beta   90.00000000
_cell_angle_gamma   90.00000000
_symmetry_Int_Tables_number   1
_chemical_formula_structural   Mo
_chemical_formula_sum   Mo16
_cell_volume   197.45753985
_cell_formula_units_Z   16
loop_
 _symmetry_equiv_pos_site_id
 _symmetry_equiv_pos_as_xyz
  1  'x, y, z'
loop_
 _atom_site_type_symbol
 _atom_site_label
 _atom_site_symmetry_multiplicity
 _atom_site_fract_x
 _atom_site_fract_y
 _atom_site_fract_z
 _atom_site_occupancy
  Mo  Mo0  1  -0.09170060  7.24793000  3.68997000  1
  Mo  Mo1  1  1.89247000  1.89830000  3.71930000  1
  Mo  Mo2  1  1.96374000  -0.00504239  1.86867000  1
  Mo  Mo3  1  7.24134000  1.88737000  1.83219000  1
  Mo  Mo4  1  3.75218000  -0.05940360  0.10633000  1
  Mo  Mo5  1  5.47875000  1.78553000  3.60339000  1
  Mo  Mo6  1  5.50023000  -0.03052520  1.87299000  1
  Mo  Mo7  1  3.60540000  1.63833000  1.87925000  1
  Mo  Mo8  1  7.33714000  3.59640000  3.73996000  1
  Mo  Mo9  1  1.86934000  5.52057000  0.10253800  1
  Mo  Mo10  1  1.89603000  3.76707000  1.78147000  1
  Mo  Mo11  1  -0.17592000  5.54992000  1.71428000  1
  Mo  Mo12  1  3.61814000  3.59983000  3.59489000  1
  Mo  Mo13  1  5.46423000  5.52067000  -0.22496600  1
  Mo  Mo14  1  5.26267000  3.70941000  1.67706000  1
  Mo  Mo15  1  3.60994000  5.26094000  1.82304000  1
