# generated using pymatgen
data_Mo
_symmetry_space_group_name_H-M   'P 1'
_cell_length_a   7.29789726
_cell_length_b   7.29789726
_cell_length_c   3.64894867
_cell_angle_alpha   90.00000000
_cell_angle_beta   90.00000000
_cell_angle_gamma   90.00000000
_symmetry_Int_Tables_number   1
_chemical_formula_structural   Mo
_chemical_formula_sum   Mo16
_cell_volume   194.34046797
_cell_formula_units_Z   16
loop_
 _symmetry_equiv_pos_site_id
 _symmetry_equiv_pos_as_xyz
  1  'x, y, z'
loop_
 _atom_site_type_symbol
 _atom_site_label
 _atom_site_symmetry_multiplicity
 _atom_site_fract_x
 _atom_site_fract_y
 _atom_site_fract_z
 _atom_site_occupancy
  Mo  Mo0  1  7.16842000  -0.16209000  0.06226490  1
  Mo  Mo1  1  1.67469000  1.75163000  -0.11563800  1
  Mo  Mo2  1  1.68140000  7.34266000  1.82251000  1
  Mo  Mo3  1  7.31830000  1.95418000  1.80357000  1
  Mo  Mo4  1  3.55309000  7.18441000  3.65904000  1
  Mo  Mo5  1  5.53110000  2.01021000  -0.04861450  1
  Mo  Mo6  1  5.46954000  7.22044000  1.87553000  1
  Mo  Mo7  1  3.72831000  1.60024000  1.86195000  1
  Mo  Mo8  1  7.27098000  3.67886000  3.67270000  1
  Mo  Mo9  1  1.97931000  5.59579000  -0.01902390  1
  Mo  Mo10  1  1.95509000  3.68778000  1.78116000  1
  Mo  Mo11  1  7.41996000  5.49082000  1.91592000  1
  Mo  Mo12  1  3.58878000  3.60867000  0.00324370  1
  Mo  Mo13  1  5.46591000  5.45809000  3.64099000  1
  Mo  Mo14  1  5.39876000  3.57466000  1.82403000  1
  Mo  Mo15  1  3.61616000  5.52555000  1.72342000  1
