# generated using pymatgen
data_Mo
_symmetry_space_group_name_H-M   'P 1'
_cell_length_a   7.33670808
_cell_length_b   7.33670808
_cell_length_c   3.66835403
_cell_angle_alpha   90.00000000
_cell_angle_beta   90.00000000
_cell_angle_gamma   90.00000000
_symmetry_Int_Tables_number   1
_chemical_formula_structural   Mo
_chemical_formula_sum   Mo16
_cell_volume   197.45753985
_cell_formula_units_Z   16
loop_
 _symmetry_equiv_pos_site_id
 _symmetry_equiv_pos_as_xyz
  1  'x, y, z'
loop_
 _atom_site_type_symbol
 _atom_site_label
 _atom_site_symmetry_multiplicity
 _atom_site_fract_x
 _atom_site_fract_y
 _atom_site_fract_z
 _atom_site_occupancy
  Mo  Mo0  1  -0.05306150  7.08541000  3.54383000  1
  Mo  Mo1  1  1.85667000  1.98344000  3.54399000  1
  Mo  Mo2  1  1.53946000  -0.14342400  1.79054000  1
  Mo  Mo3  1  7.30115000  1.92359000  1.82730000  1
  Mo  Mo4  1  3.61294000  -0.01170470  0.05703180  1
  Mo  Mo5  1  5.53296000  1.85184000  3.75260000  1
  Mo  Mo6  1  5.57073000  -0.12636500  1.97348000  1
  Mo  Mo7  1  3.75031000  1.73746000  1.76627000  1
  Mo  Mo8  1  7.25053000  3.78127000  3.61985000  1
  Mo  Mo9  1  1.88585000  5.37186000  -0.06722080  1
  Mo  Mo10  1  1.83032000  3.76630000  1.77252000  1
  Mo  Mo11  1  -0.09160790  5.53992000  1.67219000  1
  Mo  Mo12  1  3.82891000  3.48178000  3.72830000  1
  Mo  Mo13  1  5.43753000  5.53207000  0.08232100  1
  Mo  Mo14  1  5.34170000  3.72858000  1.77903000  1
  Mo  Mo15  1  3.62961000  5.38526000  1.93834000  1
