# generated using pymatgen
data_Mo
_symmetry_space_group_name_H-M   'P 1'
_cell_length_a   7.33670808
_cell_length_b   7.33670808
_cell_length_c   3.66835403
_cell_angle_alpha   90.00000000
_cell_angle_beta   90.00000000
_cell_angle_gamma   90.00000000
_symmetry_Int_Tables_number   1
_chemical_formula_structural   Mo
_chemical_formula_sum   Mo16
_cell_volume   197.45753985
_cell_formula_units_Z   16
loop_
 _symmetry_equiv_pos_site_id
 _symmetry_equiv_pos_as_xyz
  1  'x, y, z'
loop_
 _atom_site_type_symbol
 _atom_site_label
 _atom_site_symmetry_multiplicity
 _atom_site_fract_x
 _atom_site_fract_y
 _atom_site_fract_z
 _atom_site_occupancy
  Mo  Mo0  1  -0.24111400  7.21511000  3.74847000  1
  Mo  Mo1  1  1.72131000  1.75481000  3.58800000  1
  Mo  Mo2  1  1.87938000  -0.08646800  1.81807000  1
  Mo  Mo3  1  7.20856000  1.84521000  1.96710000  1
  Mo  Mo4  1  3.81202000  -0.12622000  0.00702967  1
  Mo  Mo5  1  5.53773000  1.94831000  3.80018000  1
  Mo  Mo6  1  5.46330000  -0.05378620  1.79658000  1
  Mo  Mo7  1  3.61056000  1.97010000  1.64039000  1
  Mo  Mo8  1  7.48054000  3.53534000  3.77900000  1
  Mo  Mo9  1  1.91488000  5.44511000  -0.02627350  1
  Mo  Mo10  1  1.70374000  3.64364000  1.79055000  1
  Mo  Mo11  1  0.12038400  5.47628000  1.91475000  1
  Mo  Mo12  1  3.60406000  3.89318000  3.44717000  1
  Mo  Mo13  1  5.56332000  5.13920000  -0.10067000  1
  Mo  Mo14  1  5.36640000  3.69994000  1.78298000  1
  Mo  Mo15  1  3.47893000  5.58754000  1.82702000  1
