# generated using pymatgen
data_Mo
_symmetry_space_group_name_H-M   'P 1'
_cell_length_a   7.33670808
_cell_length_b   7.33670808
_cell_length_c   3.66835403
_cell_angle_alpha   90.00000000
_cell_angle_beta   90.00000000
_cell_angle_gamma   90.00000000
_symmetry_Int_Tables_number   1
_chemical_formula_structural   Mo
_chemical_formula_sum   Mo16
_cell_volume   197.45753985
_cell_formula_units_Z   16
loop_
 _symmetry_equiv_pos_site_id
 _symmetry_equiv_pos_as_xyz
  1  'x, y, z'
loop_
 _atom_site_type_symbol
 _atom_site_label
 _atom_site_symmetry_multiplicity
 _atom_site_fract_x
 _atom_site_fract_y
 _atom_site_fract_z
 _atom_site_occupancy
  Mo  Mo0  1  -0.03788290  7.32456000  3.50241000  1
  Mo  Mo1  1  1.87134000  1.77310000  3.52530000  1
  Mo  Mo2  1  1.88746000  0.12482800  1.86112000  1
  Mo  Mo3  1  7.30129000  1.58149000  1.74352000  1
  Mo  Mo4  1  3.65357000  -0.10689800  0.03485210  1
  Mo  Mo5  1  5.43424000  1.84614000  3.74647000  1
  Mo  Mo6  1  5.38610000  0.06324030  1.82281000  1
  Mo  Mo7  1  3.65434000  1.81823000  1.67329000  1
  Mo  Mo8  1  7.12667000  3.72067000  3.78039000  1
  Mo  Mo9  1  1.67817000  5.54669000  0.14547100  1
  Mo  Mo10  1  1.63470000  3.41706000  1.88737000  1
  Mo  Mo11  1  -0.00445844  5.45881000  1.74606000  1
  Mo  Mo12  1  3.74238000  3.61260000  3.48441000  1
  Mo  Mo13  1  5.58786000  5.56643000  -0.00521625  1
  Mo  Mo14  1  5.49632000  3.58073000  1.88239000  1
  Mo  Mo15  1  3.81191000  5.55962000  1.94970000  1
