# generated using pymatgen
data_Mo
_symmetry_space_group_name_H-M   'P 1'
_cell_length_a   7.33670808
_cell_length_b   7.33670808
_cell_length_c   3.66835403
_cell_angle_alpha   90.00000000
_cell_angle_beta   90.00000000
_cell_angle_gamma   90.00000000
_symmetry_Int_Tables_number   1
_chemical_formula_structural   Mo
_chemical_formula_sum   Mo16
_cell_volume   197.45753985
_cell_formula_units_Z   16
loop_
 _symmetry_equiv_pos_site_id
 _symmetry_equiv_pos_as_xyz
  1  'x, y, z'
loop_
 _atom_site_type_symbol
 _atom_site_label
 _atom_site_symmetry_multiplicity
 _atom_site_fract_x
 _atom_site_fract_y
 _atom_site_fract_z
 _atom_site_occupancy
  Mo  Mo0  1  -0.01637780  7.24385000  3.70803000  1
  Mo  Mo1  1  1.88311000  1.58872000  3.63951000  1
  Mo  Mo2  1  1.77539000  -0.21260400  1.87739000  1
  Mo  Mo3  1  7.37357000  1.84558000  1.65069000  1
  Mo  Mo4  1  4.10284000  0.04028920  0.01384800  1
  Mo  Mo5  1  5.71646000  1.88345000  3.75299000  1
  Mo  Mo6  1  5.53278000  0.02668760  1.86043000  1
  Mo  Mo7  1  3.60123000  1.85944000  2.01681000  1
  Mo  Mo8  1  7.28043000  3.80947000  3.45666000  1
  Mo  Mo9  1  1.58431000  5.61361000  -0.02995490  1
  Mo  Mo10  1  1.72081000  3.74808000  1.88066000  1
  Mo  Mo11  1  -0.09905730  5.42413000  1.75157000  1
  Mo  Mo12  1  3.45882000  3.65129000  3.71934000  1
  Mo  Mo13  1  5.37966000  5.44021000  -0.02044630  1
  Mo  Mo14  1  5.44978000  3.35895000  1.66097000  1
  Mo  Mo15  1  3.48023000  5.56616000  1.84186000  1
