# generated using pymatgen
data_Mo
_symmetry_space_group_name_H-M   'P 1'
_cell_length_a   7.33670808
_cell_length_b   7.33670808
_cell_length_c   3.66835403
_cell_angle_alpha   90.00000000
_cell_angle_beta   90.00000000
_cell_angle_gamma   90.00000000
_symmetry_Int_Tables_number   1
_chemical_formula_structural   Mo
_chemical_formula_sum   Mo16
_cell_volume   197.45753985
_cell_formula_units_Z   16
loop_
 _symmetry_equiv_pos_site_id
 _symmetry_equiv_pos_as_xyz
  1  'x, y, z'
loop_
 _atom_site_type_symbol
 _atom_site_label
 _atom_site_symmetry_multiplicity
 _atom_site_fract_x
 _atom_site_fract_y
 _atom_site_fract_z
 _atom_site_occupancy
  Mo  Mo0  1  -0.11406100  7.10435000  3.91018000  1
  Mo  Mo1  1  1.79111000  1.75036000  3.75298000  1
  Mo  Mo2  1  1.67938000  -0.15141500  1.84244000  1
  Mo  Mo3  1  7.31835000  1.87139000  1.72365000  1
  Mo  Mo4  1  3.86977000  0.05529730  -0.04073380  1
  Mo  Mo5  1  5.38246000  1.90880000  3.68626000  1
  Mo  Mo6  1  5.73520000  0.22546300  2.00862000  1
  Mo  Mo7  1  3.55956000  1.75400000  1.82625000  1
  Mo  Mo8  1  7.18540000  3.60635000  3.46029000  1
  Mo  Mo9  1  1.99714000  5.54004000  0.10105500  1
  Mo  Mo10  1  1.81539000  3.73895000  1.85098000  1
  Mo  Mo11  1  -0.22216300  5.30960000  1.78625000  1
  Mo  Mo12  1  3.65424000  3.62298000  3.48693000  1
  Mo  Mo13  1  5.40546000  5.38672000  -0.09676170  1
  Mo  Mo14  1  5.55305000  3.43866000  1.67406000  1
  Mo  Mo15  1  3.61372000  5.72574000  1.80790000  1
