# generated using pymatgen
data_Mo
_symmetry_space_group_name_H-M   'P 1'
_cell_length_a   7.33670808
_cell_length_b   7.33670808
_cell_length_c   3.66835403
_cell_angle_alpha   90.00000000
_cell_angle_beta   90.00000000
_cell_angle_gamma   90.00000000
_symmetry_Int_Tables_number   1
_chemical_formula_structural   Mo
_chemical_formula_sum   Mo16
_cell_volume   197.45753985
_cell_formula_units_Z   16
loop_
 _symmetry_equiv_pos_site_id
 _symmetry_equiv_pos_as_xyz
  1  'x, y, z'
loop_
 _atom_site_type_symbol
 _atom_site_label
 _atom_site_symmetry_multiplicity
 _atom_site_fract_x
 _atom_site_fract_y
 _atom_site_fract_z
 _atom_site_occupancy
  Mo  Mo0  1  -0.01539980  7.16763000  3.70291000  1
  Mo  Mo1  1  1.82073000  1.87022000  3.54508000  1
  Mo  Mo2  1  1.78499000  0.00376363  1.64565000  1
  Mo  Mo3  1  7.35901000  1.71099000  1.87630000  1
  Mo  Mo4  1  3.54357000  0.03856970  -0.01410390  1
  Mo  Mo5  1  5.36674000  1.74297000  3.70389000  1
  Mo  Mo6  1  5.41548000  0.15082500  1.79912000  1
  Mo  Mo7  1  3.56965000  1.77798000  1.80909000  1
  Mo  Mo8  1  7.36347000  3.54491000  3.89827000  1
  Mo  Mo9  1  1.94118000  5.30517000  0.05171080  1
  Mo  Mo10  1  1.77461000  3.76249000  1.82726000  1
  Mo  Mo11  1  -0.02505040  5.60032000  1.92107000  1
  Mo  Mo12  1  3.76309000  3.62835000  3.47339000  1
  Mo  Mo13  1  5.43545000  5.53747000  -0.03193830  1
  Mo  Mo14  1  5.35942000  3.63008000  1.92282000  1
  Mo  Mo15  1  3.76706000  5.41554000  1.64982000  1
