# generated using pymatgen
data_Mo
_symmetry_space_group_name_H-M   'P 1'
_cell_length_a   7.33670808
_cell_length_b   7.33670808
_cell_length_c   3.66835403
_cell_angle_alpha   90.00000000
_cell_angle_beta   90.00000000
_cell_angle_gamma   90.00000000
_symmetry_Int_Tables_number   1
_chemical_formula_structural   Mo
_chemical_formula_sum   Mo16
_cell_volume   197.45753985
_cell_formula_units_Z   16
loop_
 _symmetry_equiv_pos_site_id
 _symmetry_equiv_pos_as_xyz
  1  'x, y, z'
loop_
 _atom_site_type_symbol
 _atom_site_label
 _atom_site_symmetry_multiplicity
 _atom_site_fract_x
 _atom_site_fract_y
 _atom_site_fract_z
 _atom_site_occupancy
  Mo  Mo0  1  -0.12921600  7.34658000  3.74071000  1
  Mo  Mo1  1  1.80195000  1.75653000  3.61431000  1
  Mo  Mo2  1  1.90249000  0.02440010  1.82022000  1
  Mo  Mo3  1  7.21898000  1.73200000  1.57214000  1
  Mo  Mo4  1  3.62824000  0.03392920  0.01729680  1
  Mo  Mo5  1  5.31382000  1.73039000  3.73374000  1
  Mo  Mo6  1  5.39495000  -0.09264810  2.00176000  1
  Mo  Mo7  1  3.40930000  1.87558000  1.70231000  1
  Mo  Mo8  1  7.43296000  3.37312000  3.63600000  1
  Mo  Mo9  1  1.81598000  5.62727000  -0.01147890  1
  Mo  Mo10  1  1.75755000  3.70642000  1.48745000  1
  Mo  Mo11  1  -0.04868490  5.46051000  1.85223000  1
  Mo  Mo12  1  3.70164000  3.73904000  3.63967000  1
  Mo  Mo13  1  5.63117000  5.50369000  0.00091507  1
  Mo  Mo14  1  5.54973000  3.48405000  2.00955000  1
  Mo  Mo15  1  3.84312000  5.58644000  1.96350000  1
