# generated using pymatgen
data_Mo
_symmetry_space_group_name_H-M   'P 1'
_cell_length_a   7.33670808
_cell_length_b   7.33670808
_cell_length_c   3.66835403
_cell_angle_alpha   90.00000000
_cell_angle_beta   90.00000000
_cell_angle_gamma   90.00000000
_symmetry_Int_Tables_number   1
_chemical_formula_structural   Mo
_chemical_formula_sum   Mo16
_cell_volume   197.45753985
_cell_formula_units_Z   16
loop_
 _symmetry_equiv_pos_site_id
 _symmetry_equiv_pos_as_xyz
  1  'x, y, z'
loop_
 _atom_site_type_symbol
 _atom_site_label
 _atom_site_symmetry_multiplicity
 _atom_site_fract_x
 _atom_site_fract_y
 _atom_site_fract_z
 _atom_site_occupancy
  Mo  Mo0  1  -0.27396900  7.19446000  3.58424000  1
  Mo  Mo1  1  1.82136000  1.90570000  3.58285000  1
  Mo  Mo2  1  1.80735000  -0.01454360  1.83144000  1
  Mo  Mo3  1  7.32150000  1.68841000  1.70618000  1
  Mo  Mo4  1  3.66558000  -0.07948510  0.01197660  1
  Mo  Mo5  1  5.31024000  1.75147000  3.75951000  1
  Mo  Mo6  1  5.51499000  -0.04952670  1.74342000  1
  Mo  Mo7  1  3.73407000  1.82129000  2.02554000  1
  Mo  Mo8  1  7.39612000  3.39871000  3.55705000  1
  Mo  Mo9  1  1.90005000  5.78524000  -0.05374290  1
  Mo  Mo10  1  1.85414000  3.80106000  1.81551000  1
  Mo  Mo11  1  0.00511302  5.24728000  1.65102000  1
  Mo  Mo12  1  3.47799000  3.73268000  3.76365000  1
  Mo  Mo13  1  5.49615000  5.39600000  -0.09418360  1
  Mo  Mo14  1  5.60233000  3.73317000  2.06009000  1
  Mo  Mo15  1  3.59097000  5.57538000  1.83579000  1
