# generated using pymatgen
data_Mo
_symmetry_space_group_name_H-M   'P 1'
_cell_length_a   7.33670808
_cell_length_b   7.33670808
_cell_length_c   3.66835403
_cell_angle_alpha   90.00000000
_cell_angle_beta   90.00000000
_cell_angle_gamma   90.00000000
_symmetry_Int_Tables_number   1
_chemical_formula_structural   Mo
_chemical_formula_sum   Mo16
_cell_volume   197.45753985
_cell_formula_units_Z   16
loop_
 _symmetry_equiv_pos_site_id
 _symmetry_equiv_pos_as_xyz
  1  'x, y, z'
loop_
 _atom_site_type_symbol
 _atom_site_label
 _atom_site_symmetry_multiplicity
 _atom_site_fract_x
 _atom_site_fract_y
 _atom_site_fract_z
 _atom_site_occupancy
  Mo  Mo0  1  0.01758880  7.39504000  3.60608000  1
  Mo  Mo1  1  1.86866000  1.64614000  3.77431000  1
  Mo  Mo2  1  1.64529000  0.01389880  1.82501000  1
  Mo  Mo3  1  7.33532000  2.04097000  1.63491000  1
  Mo  Mo4  1  3.52544000  0.07601670  0.07584270  1
  Mo  Mo5  1  5.62137000  1.90631000  3.54679000  1
  Mo  Mo6  1  5.62541000  -0.03447840  1.86037000  1
  Mo  Mo7  1  3.71607000  1.78543000  1.85960000  1
  Mo  Mo8  1  7.33477000  3.77300000  3.55404000  1
  Mo  Mo9  1  1.77132000  5.35982000  -0.05327440  1
  Mo  Mo10  1  1.70611000  3.55396000  1.75113000  1
  Mo  Mo11  1  -0.09492420  5.39638000  1.83445000  1
  Mo  Mo12  1  3.66837000  3.57076000  3.53102000  1
  Mo  Mo13  1  5.40123000  5.40093000  -0.02098530  1
  Mo  Mo14  1  5.37147000  3.62509000  1.78914000  1
  Mo  Mo15  1  3.71050000  5.37803000  2.21192000  1
