# generated using pymatgen
data_Mo
_symmetry_space_group_name_H-M   'P 1'
_cell_length_a   7.33670808
_cell_length_b   7.33670808
_cell_length_c   3.66835403
_cell_angle_alpha   90.00000000
_cell_angle_beta   90.00000000
_cell_angle_gamma   90.00000000
_symmetry_Int_Tables_number   1
_chemical_formula_structural   Mo
_chemical_formula_sum   Mo16
_cell_volume   197.45753985
_cell_formula_units_Z   16
loop_
 _symmetry_equiv_pos_site_id
 _symmetry_equiv_pos_as_xyz
  1  'x, y, z'
loop_
 _atom_site_type_symbol
 _atom_site_label
 _atom_site_symmetry_multiplicity
 _atom_site_fract_x
 _atom_site_fract_y
 _atom_site_fract_z
 _atom_site_occupancy
  Mo  Mo0  1  -0.06708150  7.30476000  3.54878000  1
  Mo  Mo1  1  1.88933000  1.85295000  3.61982000  1
  Mo  Mo2  1  1.91370000  -0.02116300  1.83385000  1
  Mo  Mo3  1  7.32740000  1.85404000  1.55252000  1
  Mo  Mo4  1  3.92961000  -0.14796900  0.10032900  1
  Mo  Mo5  1  5.44118000  2.00267000  3.72819000  1
  Mo  Mo6  1  5.43991000  -0.12642800  1.94986000  1
  Mo  Mo7  1  3.69379000  1.87428000  1.96349000  1
  Mo  Mo8  1  7.31060000  3.70126000  3.55529000  1
  Mo  Mo9  1  1.71298000  5.66459000  -0.13545200  1
  Mo  Mo10  1  1.70793000  3.76750000  1.66402000  1
  Mo  Mo11  1  -0.01261770  5.60996000  1.69021000  1
  Mo  Mo12  1  3.40936000  3.53649000  3.73710000  1
  Mo  Mo13  1  5.46300000  5.09687000  0.05029770  1
  Mo  Mo14  1  5.54645000  3.43940000  1.77456000  1
  Mo  Mo15  1  3.51846000  5.47808000  2.14749000  1
