# generated using pymatgen
data_Mo
_symmetry_space_group_name_H-M   'P 1'
_cell_length_a   7.29789726
_cell_length_b   7.29789726
_cell_length_c   3.64894867
_cell_angle_alpha   90.00000000
_cell_angle_beta   90.00000000
_cell_angle_gamma   90.00000000
_symmetry_Int_Tables_number   1
_chemical_formula_structural   Mo
_chemical_formula_sum   Mo16
_cell_volume   194.34046797
_cell_formula_units_Z   16
loop_
 _symmetry_equiv_pos_site_id
 _symmetry_equiv_pos_as_xyz
  1  'x, y, z'
loop_
 _atom_site_type_symbol
 _atom_site_label
 _atom_site_symmetry_multiplicity
 _atom_site_fract_x
 _atom_site_fract_y
 _atom_site_fract_z
 _atom_site_occupancy
  Mo  Mo0  1  7.35089000  0.14640100  -0.09041610  1
  Mo  Mo1  1  1.96563000  1.86898000  0.03876810  1
  Mo  Mo2  1  1.77693000  7.40403000  1.95072000  1
  Mo  Mo3  1  7.10523000  1.83526000  1.81938000  1
  Mo  Mo4  1  3.57099000  7.19760000  3.54416000  1
  Mo  Mo5  1  5.36861000  1.73864000  0.04053130  1
  Mo  Mo6  1  5.47964000  7.28801000  1.75428000  1
  Mo  Mo7  1  3.84411000  1.62896000  1.94065000  1
  Mo  Mo8  1  7.15033000  3.53260000  3.58197000  1
  Mo  Mo9  1  1.74329000  5.44139000  -0.10731500  1
  Mo  Mo10  1  1.97867000  3.64504000  1.86208000  1
  Mo  Mo11  1  7.35214000  5.53708000  1.74055000  1
  Mo  Mo12  1  3.64948000  3.65188000  0.09986110  1
  Mo  Mo13  1  5.56185000  5.44291000  3.62774000  1
  Mo  Mo14  1  5.42284000  3.64318000  1.83784000  1
  Mo  Mo15  1  3.49915000  5.51993000  1.82226000  1
