# generated using pymatgen
data_Mo
_symmetry_space_group_name_H-M   'P 1'
_cell_length_a   7.33670808
_cell_length_b   7.33670808
_cell_length_c   3.66835403
_cell_angle_alpha   90.00000000
_cell_angle_beta   90.00000000
_cell_angle_gamma   90.00000000
_symmetry_Int_Tables_number   1
_chemical_formula_structural   Mo
_chemical_formula_sum   Mo16
_cell_volume   197.45753985
_cell_formula_units_Z   16
loop_
 _symmetry_equiv_pos_site_id
 _symmetry_equiv_pos_as_xyz
  1  'x, y, z'
loop_
 _atom_site_type_symbol
 _atom_site_label
 _atom_site_symmetry_multiplicity
 _atom_site_fract_x
 _atom_site_fract_y
 _atom_site_fract_z
 _atom_site_occupancy
  Mo  Mo0  1  -0.11665000  7.25294000  3.63598000  1
  Mo  Mo1  1  1.63779000  1.68032000  3.88036000  1
  Mo  Mo2  1  1.93868000  -0.00310412  1.95658000  1
  Mo  Mo3  1  7.24207000  1.63350000  1.82897000  1
  Mo  Mo4  1  3.54014000  0.02001930  0.06889430  1
  Mo  Mo5  1  5.58264000  1.81304000  3.50912000  1
  Mo  Mo6  1  5.38613000  -0.16250200  1.70635000  1
  Mo  Mo7  1  3.49046000  1.77601000  1.79464000  1
  Mo  Mo8  1  7.40841000  3.92309000  3.53947000  1
  Mo  Mo9  1  2.06907000  5.63212000  0.13296300  1
  Mo  Mo10  1  1.76207000  3.78221000  1.77605000  1
  Mo  Mo11  1  0.21563000  5.54017000  1.75117000  1
  Mo  Mo12  1  3.69749000  3.46692000  3.74585000  1
  Mo  Mo13  1  5.31318000  5.39679000  -0.13564200  1
  Mo  Mo14  1  5.43673000  3.79808000  1.69452000  1
  Mo  Mo15  1  3.62015000  5.33769000  1.89508000  1
