# generated using pymatgen
data_Mo
_symmetry_space_group_name_H-M   'P 1'
_cell_length_a   7.33670808
_cell_length_b   7.33670808
_cell_length_c   3.66835403
_cell_angle_alpha   90.00000000
_cell_angle_beta   90.00000000
_cell_angle_gamma   90.00000000
_symmetry_Int_Tables_number   1
_chemical_formula_structural   Mo
_chemical_formula_sum   Mo16
_cell_volume   197.45753985
_cell_formula_units_Z   16
loop_
 _symmetry_equiv_pos_site_id
 _symmetry_equiv_pos_as_xyz
  1  'x, y, z'
loop_
 _atom_site_type_symbol
 _atom_site_label
 _atom_site_symmetry_multiplicity
 _atom_site_fract_x
 _atom_site_fract_y
 _atom_site_fract_z
 _atom_site_occupancy
  Mo  Mo0  1  -0.05502610  7.35599000  3.80355000  1
  Mo  Mo1  1  1.83128000  1.94540000  3.61079000  1
  Mo  Mo2  1  1.81736000  -0.01645750  1.84491000  1
  Mo  Mo3  1  7.32711000  1.96619000  1.74094000  1
  Mo  Mo4  1  3.65225000  -0.12288500  0.01090100  1
  Mo  Mo5  1  5.36120000  1.83822000  3.59419000  1
  Mo  Mo6  1  5.56865000  -0.00198649  1.79500000  1
  Mo  Mo7  1  3.47411000  1.47307000  1.62363000  1
  Mo  Mo8  1  7.36644000  3.58613000  3.67187000  1
  Mo  Mo9  1  1.95625000  5.32948000  0.07738620  1
  Mo  Mo10  1  1.75715000  3.56755000  1.68248000  1
  Mo  Mo11  1  -0.01728900  5.49819000  1.90784000  1
  Mo  Mo12  1  3.58984000  3.64466000  3.65220000  1
  Mo  Mo13  1  5.53307000  5.42924000  0.13140300  1
  Mo  Mo14  1  5.40995000  3.72104000  1.73860000  1
  Mo  Mo15  1  3.65165000  5.67345000  1.89466000  1
