# generated using pymatgen
data_Mo
_symmetry_space_group_name_H-M   'P 1'
_cell_length_a   7.33670808
_cell_length_b   7.33670808
_cell_length_c   3.66835403
_cell_angle_alpha   90.00000000
_cell_angle_beta   90.00000000
_cell_angle_gamma   90.00000000
_symmetry_Int_Tables_number   1
_chemical_formula_structural   Mo
_chemical_formula_sum   Mo16
_cell_volume   197.45753985
_cell_formula_units_Z   16
loop_
 _symmetry_equiv_pos_site_id
 _symmetry_equiv_pos_as_xyz
  1  'x, y, z'
loop_
 _atom_site_type_symbol
 _atom_site_label
 _atom_site_symmetry_multiplicity
 _atom_site_fract_x
 _atom_site_fract_y
 _atom_site_fract_z
 _atom_site_occupancy
  Mo  Mo0  1  0.07397730  7.30560000  3.64013000  1
  Mo  Mo1  1  1.84102000  1.88034000  3.51218000  1
  Mo  Mo2  1  1.72604000  0.01165410  1.81732000  1
  Mo  Mo3  1  7.35012000  1.93453000  1.69738000  1
  Mo  Mo4  1  3.74968000  0.03319730  -0.13110200  1
  Mo  Mo5  1  5.61935000  1.84914000  3.63149000  1
  Mo  Mo6  1  5.52011000  -0.03852300  1.83941000  1
  Mo  Mo7  1  3.41153000  1.66505000  1.75822000  1
  Mo  Mo8  1  7.45773000  3.69288000  3.76219000  1
  Mo  Mo9  1  1.76756000  5.50411000  0.04346970  1
  Mo  Mo10  1  1.98038000  3.73961000  1.71856000  1
  Mo  Mo11  1  0.05536000  5.45206000  2.04640000  1
  Mo  Mo12  1  3.47224000  3.54012000  3.70668000  1
  Mo  Mo13  1  5.22833000  5.56233000  0.04445280  1
  Mo  Mo14  1  5.32825000  3.39013000  1.83879000  1
  Mo  Mo15  1  3.64233000  5.36506000  1.85478000  1
