# generated using pymatgen
data_Mo
_symmetry_space_group_name_H-M   'P 1'
_cell_length_a   7.33670808
_cell_length_b   7.33670808
_cell_length_c   3.66835403
_cell_angle_alpha   90.00000000
_cell_angle_beta   90.00000000
_cell_angle_gamma   90.00000000
_symmetry_Int_Tables_number   1
_chemical_formula_structural   Mo
_chemical_formula_sum   Mo16
_cell_volume   197.45753985
_cell_formula_units_Z   16
loop_
 _symmetry_equiv_pos_site_id
 _symmetry_equiv_pos_as_xyz
  1  'x, y, z'
loop_
 _atom_site_type_symbol
 _atom_site_label
 _atom_site_symmetry_multiplicity
 _atom_site_fract_x
 _atom_site_fract_y
 _atom_site_fract_z
 _atom_site_occupancy
  Mo  Mo0  1  -0.07903620  7.31155000  3.55333000  1
  Mo  Mo1  1  1.74963000  1.93158000  3.81063000  1
  Mo  Mo2  1  1.86528000  0.05515420  1.65699000  1
  Mo  Mo3  1  7.16307000  1.70464000  1.69553000  1
  Mo  Mo4  1  3.57506000  0.16200700  -0.24457100  1
  Mo  Mo5  1  5.49975000  1.79642000  3.65515000  1
  Mo  Mo6  1  5.48687000  -0.14096800  1.83386000  1
  Mo  Mo7  1  3.55752000  1.84635000  1.89085000  1
  Mo  Mo8  1  7.31384000  3.63502000  3.59761000  1
  Mo  Mo9  1  1.79455000  5.47931000  0.11376400  1
  Mo  Mo10  1  1.61894000  3.67189000  1.74373000  1
  Mo  Mo11  1  0.26535000  5.36399000  1.88708000  1
  Mo  Mo12  1  3.65350000  3.77097000  3.78380000  1
  Mo  Mo13  1  5.46617000  5.37868000  0.09497690  1
  Mo  Mo14  1  5.57215000  3.50326000  1.84813000  1
  Mo  Mo15  1  3.72135000  5.41743000  1.85953000  1
