# generated using pymatgen
data_Mo
_symmetry_space_group_name_H-M   'P 1'
_cell_length_a   7.33670808
_cell_length_b   7.33670808
_cell_length_c   3.66835403
_cell_angle_alpha   90.00000000
_cell_angle_beta   90.00000000
_cell_angle_gamma   90.00000000
_symmetry_Int_Tables_number   1
_chemical_formula_structural   Mo
_chemical_formula_sum   Mo16
_cell_volume   197.45753985
_cell_formula_units_Z   16
loop_
 _symmetry_equiv_pos_site_id
 _symmetry_equiv_pos_as_xyz
  1  'x, y, z'
loop_
 _atom_site_type_symbol
 _atom_site_label
 _atom_site_symmetry_multiplicity
 _atom_site_fract_x
 _atom_site_fract_y
 _atom_site_fract_z
 _atom_site_occupancy
  Mo  Mo0  1  0.05865930  7.27286000  3.68738000  1
  Mo  Mo1  1  1.87451000  1.94369000  3.74188000  1
  Mo  Mo2  1  1.79082000  0.08657850  1.98542000  1
  Mo  Mo3  1  7.38811000  1.90558000  1.89754000  1
  Mo  Mo4  1  3.59281000  -0.10934200  0.14638700  1
  Mo  Mo5  1  5.49444000  1.52391000  3.53899000  1
  Mo  Mo6  1  5.33647000  -0.08225740  1.81673000  1
  Mo  Mo7  1  3.70270000  1.84185000  1.90355000  1
  Mo  Mo8  1  7.31989000  3.75528000  3.50239000  1
  Mo  Mo9  1  1.80508000  5.48000000  0.10732500  1
  Mo  Mo10  1  1.88165000  3.68150000  1.83300000  1
  Mo  Mo11  1  -0.15945600  5.63954000  1.66639000  1
  Mo  Mo12  1  3.54193000  3.53246000  3.65908000  1
  Mo  Mo13  1  5.58486000  5.39739000  -0.18156000  1
  Mo  Mo14  1  5.55779000  3.51315000  1.63001000  1
  Mo  Mo15  1  3.45373000  5.50511000  1.84583000  1
