# generated using pymatgen
data_Mo
_symmetry_space_group_name_H-M   'P 1'
_cell_length_a   7.33670808
_cell_length_b   7.33670808
_cell_length_c   3.66835403
_cell_angle_alpha   90.00000000
_cell_angle_beta   90.00000000
_cell_angle_gamma   90.00000000
_symmetry_Int_Tables_number   1
_chemical_formula_structural   Mo
_chemical_formula_sum   Mo16
_cell_volume   197.45753985
_cell_formula_units_Z   16
loop_
 _symmetry_equiv_pos_site_id
 _symmetry_equiv_pos_as_xyz
  1  'x, y, z'
loop_
 _atom_site_type_symbol
 _atom_site_label
 _atom_site_symmetry_multiplicity
 _atom_site_fract_x
 _atom_site_fract_y
 _atom_site_fract_z
 _atom_site_occupancy
  Mo  Mo0  1  -0.23526100  7.21979000  3.78485000  1
  Mo  Mo1  1  1.63564000  1.69070000  3.88559000  1
  Mo  Mo2  1  1.91512000  0.14790500  1.94848000  1
  Mo  Mo3  1  7.07867000  1.84410000  2.02620000  1
  Mo  Mo4  1  3.76837000  0.01816270  -0.05341960  1
  Mo  Mo5  1  5.59406000  1.77845000  3.61120000  1
  Mo  Mo6  1  5.63267000  -0.15197400  1.71759000  1
  Mo  Mo7  1  3.69828000  1.98015000  1.81478000  1
  Mo  Mo8  1  7.32752000  3.62350000  3.65823000  1
  Mo  Mo9  1  1.88748000  5.52710000  -0.00536320  1
  Mo  Mo10  1  1.67190000  3.49535000  1.88192000  1
  Mo  Mo11  1  0.00870202  5.60553000  1.75985000  1
  Mo  Mo12  1  3.57553000  3.50380000  3.47893000  1
  Mo  Mo13  1  5.34162000  5.44949000  -0.15689100  1
  Mo  Mo14  1  5.65246000  3.69006000  1.75991000  1
  Mo  Mo15  1  3.67123000  5.46519000  1.66850000  1
