# generated using pymatgen
data_Mo
_symmetry_space_group_name_H-M   'P 1'
_cell_length_a   7.33670808
_cell_length_b   7.33670808
_cell_length_c   3.66835403
_cell_angle_alpha   90.00000000
_cell_angle_beta   90.00000000
_cell_angle_gamma   90.00000000
_symmetry_Int_Tables_number   1
_chemical_formula_structural   Mo
_chemical_formula_sum   Mo16
_cell_volume   197.45753985
_cell_formula_units_Z   16
loop_
 _symmetry_equiv_pos_site_id
 _symmetry_equiv_pos_as_xyz
  1  'x, y, z'
loop_
 _atom_site_type_symbol
 _atom_site_label
 _atom_site_symmetry_multiplicity
 _atom_site_fract_x
 _atom_site_fract_y
 _atom_site_fract_z
 _atom_site_occupancy
  Mo  Mo0  1  -0.20429600  7.35653000  3.79055000  1
  Mo  Mo1  1  1.77801000  1.92842000  3.61546000  1
  Mo  Mo2  1  1.77174000  0.10275200  2.00919000  1
  Mo  Mo3  1  7.18981000  1.80328000  1.98898000  1
  Mo  Mo4  1  3.64600000  -0.07220250  0.23589200  1
  Mo  Mo5  1  5.56117000  1.83761000  3.69201000  1
  Mo  Mo6  1  5.15985000  -0.17089300  1.89077000  1
  Mo  Mo7  1  3.70039000  1.88449000  1.76049000  1
  Mo  Mo8  1  7.48139000  3.82966000  3.50915000  1
  Mo  Mo9  1  1.80859000  5.47344000  0.06483940  1
  Mo  Mo10  1  1.87250000  3.45901000  1.72129000  1
  Mo  Mo11  1  0.13717400  5.45846000  1.78278000  1
  Mo  Mo12  1  3.55570000  3.58698000  3.52430000  1
  Mo  Mo13  1  5.38709000  5.43053000  -0.09035190  1
  Mo  Mo14  1  5.77919000  3.67888000  1.70857000  1
  Mo  Mo15  1  3.59968000  5.30034000  1.57644000  1
