# generated using pymatgen
data_Mo
_symmetry_space_group_name_H-M   'P 1'
_cell_length_a   7.33670808
_cell_length_b   7.33670808
_cell_length_c   3.66835403
_cell_angle_alpha   90.00000000
_cell_angle_beta   90.00000000
_cell_angle_gamma   90.00000000
_symmetry_Int_Tables_number   1
_chemical_formula_structural   Mo
_chemical_formula_sum   Mo16
_cell_volume   197.45753985
_cell_formula_units_Z   16
loop_
 _symmetry_equiv_pos_site_id
 _symmetry_equiv_pos_as_xyz
  1  'x, y, z'
loop_
 _atom_site_type_symbol
 _atom_site_label
 _atom_site_symmetry_multiplicity
 _atom_site_fract_x
 _atom_site_fract_y
 _atom_site_fract_z
 _atom_site_occupancy
  Mo  Mo0  1  -0.03749570  7.31430000  3.75423000  1
  Mo  Mo1  1  1.78976000  1.86264000  3.54296000  1
  Mo  Mo2  1  1.72521000  -0.05717020  1.77862000  1
  Mo  Mo3  1  7.20781000  1.67007000  1.77181000  1
  Mo  Mo4  1  3.61240000  -0.02213680  -0.11333500  1
  Mo  Mo5  1  5.38481000  1.97331000  3.72594000  1
  Mo  Mo6  1  5.47844000  -0.20538800  1.56093000  1
  Mo  Mo7  1  3.58730000  1.82334000  1.65452000  1
  Mo  Mo8  1  7.51979000  3.73266000  3.85063000  1
  Mo  Mo9  1  1.77198000  5.43217000  -0.14281200  1
  Mo  Mo10  1  1.80350000  3.62882000  1.86827000  1
  Mo  Mo11  1  -0.03488100  5.28591000  1.80018000  1
  Mo  Mo12  1  3.72814000  3.77073000  3.90012000  1
  Mo  Mo13  1  5.38935000  5.46493000  0.00747326  1
  Mo  Mo14  1  5.63878000  3.60990000  1.99643000  1
  Mo  Mo15  1  3.65912000  5.60322000  1.82438000  1
