# generated using pymatgen
data_Mo
_symmetry_space_group_name_H-M   'P 1'
_cell_length_a   7.33670808
_cell_length_b   7.33670808
_cell_length_c   3.66835403
_cell_angle_alpha   90.00000000
_cell_angle_beta   90.00000000
_cell_angle_gamma   90.00000000
_symmetry_Int_Tables_number   1
_chemical_formula_structural   Mo
_chemical_formula_sum   Mo16
_cell_volume   197.45753985
_cell_formula_units_Z   16
loop_
 _symmetry_equiv_pos_site_id
 _symmetry_equiv_pos_as_xyz
  1  'x, y, z'
loop_
 _atom_site_type_symbol
 _atom_site_label
 _atom_site_symmetry_multiplicity
 _atom_site_fract_x
 _atom_site_fract_y
 _atom_site_fract_z
 _atom_site_occupancy
  Mo  Mo0  1  -0.10742300  7.18542000  3.83263000  1
  Mo  Mo1  1  1.95097000  1.77659000  3.66996000  1
  Mo  Mo2  1  1.80436000  0.03030460  1.79038000  1
  Mo  Mo3  1  7.39838000  2.04021000  1.92947000  1
  Mo  Mo4  1  3.56888000  -0.00647708  0.07078680  1
  Mo  Mo5  1  5.43480000  1.65165000  3.64569000  1
  Mo  Mo6  1  5.45797000  0.00295994  1.80913000  1
  Mo  Mo7  1  3.60429000  1.84758000  1.76190000  1
  Mo  Mo8  1  7.32261000  3.54098000  3.77434000  1
  Mo  Mo9  1  1.83578000  5.56928000  -0.12659300  1
  Mo  Mo10  1  1.82080000  3.53217000  1.68579000  1
  Mo  Mo11  1  -0.14910900  5.25057000  1.75481000  1
  Mo  Mo12  1  3.71431000  3.73388000  3.55757000  1
  Mo  Mo13  1  5.47835000  5.54467000  -0.02907220  1
  Mo  Mo14  1  5.39874000  3.62236000  1.89579000  1
  Mo  Mo15  1  3.69030000  5.56516000  1.75778000  1
