# generated using pymatgen
data_Mo
_symmetry_space_group_name_H-M   'P 1'
_cell_length_a   7.33670808
_cell_length_b   7.33670808
_cell_length_c   3.66835403
_cell_angle_alpha   90.00000000
_cell_angle_beta   90.00000000
_cell_angle_gamma   90.00000000
_symmetry_Int_Tables_number   1
_chemical_formula_structural   Mo
_chemical_formula_sum   Mo16
_cell_volume   197.45753985
_cell_formula_units_Z   16
loop_
 _symmetry_equiv_pos_site_id
 _symmetry_equiv_pos_as_xyz
  1  'x, y, z'
loop_
 _atom_site_type_symbol
 _atom_site_label
 _atom_site_symmetry_multiplicity
 _atom_site_fract_x
 _atom_site_fract_y
 _atom_site_fract_z
 _atom_site_occupancy
  Mo  Mo0  1  -0.03686840  7.52379000  3.91018000  1
  Mo  Mo1  1  1.93279000  1.87099000  3.81684000  1
  Mo  Mo2  1  1.78587000  -0.25865900  1.88304000  1
  Mo  Mo3  1  7.38365000  1.91185000  1.82403000  1
  Mo  Mo4  1  3.42914000  -0.10420200  -0.08564440  1
  Mo  Mo5  1  5.47316000  1.79586000  3.69608000  1
  Mo  Mo6  1  5.52769000  0.06603190  1.94355000  1
  Mo  Mo7  1  3.58692000  1.52796000  1.97813000  1
  Mo  Mo8  1  7.30686000  3.68346000  3.41895000  1
  Mo  Mo9  1  1.62702000  5.33716000  0.00666741  1
  Mo  Mo10  1  1.87126000  3.63546000  1.73376000  1
  Mo  Mo11  1  -0.11013400  5.54155000  1.78359000  1
  Mo  Mo12  1  3.69352000  3.65086000  3.48431000  1
  Mo  Mo13  1  5.43311000  5.72936000  0.08575740  1
  Mo  Mo14  1  5.48302000  3.63432000  1.54549000  1
  Mo  Mo15  1  3.83699000  5.34150000  1.75563000  1
