# generated using pymatgen
data_Mo
_symmetry_space_group_name_H-M   'P 1'
_cell_length_a   7.29789726
_cell_length_b   7.29789726
_cell_length_c   3.64894867
_cell_angle_alpha   90.00000000
_cell_angle_beta   90.00000000
_cell_angle_gamma   90.00000000
_symmetry_Int_Tables_number   1
_chemical_formula_structural   Mo
_chemical_formula_sum   Mo16
_cell_volume   194.34046797
_cell_formula_units_Z   16
loop_
 _symmetry_equiv_pos_site_id
 _symmetry_equiv_pos_as_xyz
  1  'x, y, z'
loop_
 _atom_site_type_symbol
 _atom_site_label
 _atom_site_symmetry_multiplicity
 _atom_site_fract_x
 _atom_site_fract_y
 _atom_site_fract_z
 _atom_site_occupancy
  Mo  Mo0  1  7.40140000  0.00060084  0.07915970  1
  Mo  Mo1  1  1.81711000  1.81939000  -0.10811600  1
  Mo  Mo2  1  1.92475000  7.26929000  1.79713000  1
  Mo  Mo3  1  7.39326000  1.73440000  1.73691000  1
  Mo  Mo4  1  3.72903000  7.26876000  3.72036000  1
  Mo  Mo5  1  5.49873000  1.78508000  0.04791310  1
  Mo  Mo6  1  5.38706000  7.32530000  1.84954000  1
  Mo  Mo7  1  3.50457000  1.80787000  1.88152000  1
  Mo  Mo8  1  7.29905000  3.66504000  3.57852000  1
  Mo  Mo9  1  1.75170000  5.59109000  0.09943900  1
  Mo  Mo10  1  1.76826000  3.89792000  1.85086000  1
  Mo  Mo11  1  7.06895000  5.55037000  1.77747000  1
  Mo  Mo12  1  3.59488000  3.52662000  -0.04651590  1
  Mo  Mo13  1  5.52545000  5.45464000  3.60972000  1
  Mo  Mo14  1  5.32837000  3.43292000  1.80618000  1
  Mo  Mo15  1  3.82723000  5.39259000  1.78296000  1
