# generated using pymatgen
data_Mo
_symmetry_space_group_name_H-M   'P 1'
_cell_length_a   7.33670808
_cell_length_b   7.33670808
_cell_length_c   3.66835403
_cell_angle_alpha   90.00000000
_cell_angle_beta   90.00000000
_cell_angle_gamma   90.00000000
_symmetry_Int_Tables_number   1
_chemical_formula_structural   Mo
_chemical_formula_sum   Mo16
_cell_volume   197.45753985
_cell_formula_units_Z   16
loop_
 _symmetry_equiv_pos_site_id
 _symmetry_equiv_pos_as_xyz
  1  'x, y, z'
loop_
 _atom_site_type_symbol
 _atom_site_label
 _atom_site_symmetry_multiplicity
 _atom_site_fract_x
 _atom_site_fract_y
 _atom_site_fract_z
 _atom_site_occupancy
  Mo  Mo0  1  0.13783500  7.36633000  3.75692000  1
  Mo  Mo1  1  1.97420000  1.73408000  3.56846000  1
  Mo  Mo2  1  1.75951000  0.02506000  1.78757000  1
  Mo  Mo3  1  7.41046000  1.76206000  1.89962000  1
  Mo  Mo4  1  3.78597000  -0.00074101  -0.09883860  1
  Mo  Mo5  1  5.54770000  1.88764000  3.58148000  1
  Mo  Mo6  1  5.46038000  -0.11006700  1.87179000  1
  Mo  Mo7  1  3.53975000  2.01226000  1.89631000  1
  Mo  Mo8  1  7.09130000  3.60026000  3.59528000  1
  Mo  Mo9  1  1.87004000  5.37816000  0.01767440  1
  Mo  Mo10  1  1.62610000  3.51754000  1.88246000  1
  Mo  Mo11  1  0.12224200  5.43034000  1.85766000  1
  Mo  Mo12  1  3.52946000  3.73892000  3.67580000  1
  Mo  Mo13  1  5.44789000  5.44371000  0.00919609  1
  Mo  Mo14  1  5.38776000  3.78143000  1.76268000  1
  Mo  Mo15  1  3.53341000  5.32031000  1.71629000  1
