# generated using pymatgen
data_Mo
_symmetry_space_group_name_H-M   'P 1'
_cell_length_a   7.33670808
_cell_length_b   7.33670808
_cell_length_c   3.66835403
_cell_angle_alpha   90.00000000
_cell_angle_beta   90.00000000
_cell_angle_gamma   90.00000000
_symmetry_Int_Tables_number   1
_chemical_formula_structural   Mo
_chemical_formula_sum   Mo16
_cell_volume   197.45753985
_cell_formula_units_Z   16
loop_
 _symmetry_equiv_pos_site_id
 _symmetry_equiv_pos_as_xyz
  1  'x, y, z'
loop_
 _atom_site_type_symbol
 _atom_site_label
 _atom_site_symmetry_multiplicity
 _atom_site_fract_x
 _atom_site_fract_y
 _atom_site_fract_z
 _atom_site_occupancy
  Mo  Mo0  1  0.01195690  7.35568000  3.75226000  1
  Mo  Mo1  1  1.77430000  1.72141000  3.58786000  1
  Mo  Mo2  1  1.80363000  -0.12437800  1.87267000  1
  Mo  Mo3  1  7.44185000  1.86783000  2.01809000  1
  Mo  Mo4  1  3.50551000  0.02332710  -0.12984400  1
  Mo  Mo5  1  5.36197000  1.80822000  3.74552000  1
  Mo  Mo6  1  5.40617000  -0.05714570  1.72766000  1
  Mo  Mo7  1  3.53465000  1.70866000  1.82369000  1
  Mo  Mo8  1  7.42841000  3.66173000  3.62715000  1
  Mo  Mo9  1  2.00530000  5.54836000  -0.16016100  1
  Mo  Mo10  1  1.82100000  3.72666000  1.83434000  1
  Mo  Mo11  1  -0.24522700  5.45041000  1.81484000  1
  Mo  Mo12  1  3.76787000  3.53882000  3.73409000  1
  Mo  Mo13  1  5.39778000  5.45670000  -0.07744850  1
  Mo  Mo14  1  5.36237000  3.59466000  1.91768000  1
  Mo  Mo15  1  3.84644000  5.60634000  1.69194000  1
