# generated using pymatgen
data_Mo
_symmetry_space_group_name_H-M   'P 1'
_cell_length_a   7.33670808
_cell_length_b   7.33670808
_cell_length_c   3.66835403
_cell_angle_alpha   90.00000000
_cell_angle_beta   90.00000000
_cell_angle_gamma   90.00000000
_symmetry_Int_Tables_number   1
_chemical_formula_structural   Mo
_chemical_formula_sum   Mo16
_cell_volume   197.45753985
_cell_formula_units_Z   16
loop_
 _symmetry_equiv_pos_site_id
 _symmetry_equiv_pos_as_xyz
  1  'x, y, z'
loop_
 _atom_site_type_symbol
 _atom_site_label
 _atom_site_symmetry_multiplicity
 _atom_site_fract_x
 _atom_site_fract_y
 _atom_site_fract_z
 _atom_site_occupancy
  Mo  Mo0  1  -0.08540500  7.35672000  3.62403000  1
  Mo  Mo1  1  1.89874000  1.94245000  3.73431000  1
  Mo  Mo2  1  1.93581000  -0.08384660  1.81542000  1
  Mo  Mo3  1  7.46888000  1.69010000  1.77621000  1
  Mo  Mo4  1  3.77576000  0.01004280  0.01305550  1
  Mo  Mo5  1  5.41790000  1.90959000  3.66389000  1
  Mo  Mo6  1  5.58217000  -0.20179900  1.91164000  1
  Mo  Mo7  1  3.68953000  1.83111000  1.71100000  1
  Mo  Mo8  1  7.34445000  3.53753000  3.61723000  1
  Mo  Mo9  1  1.61928000  5.45723000  0.00155586  1
  Mo  Mo10  1  1.68658000  3.99566000  1.93175000  1
  Mo  Mo11  1  -0.02938190  5.61857000  1.79372000  1
  Mo  Mo12  1  3.41914000  3.60482000  3.69330000  1
  Mo  Mo13  1  5.31512000  5.29464000  -0.00782361  1
  Mo  Mo14  1  5.53533000  3.57680000  1.63832000  1
  Mo  Mo15  1  3.65008000  5.34768000  1.86276000  1
