# generated using pymatgen
data_Mo
_symmetry_space_group_name_H-M   'P 1'
_cell_length_a   7.33670808
_cell_length_b   7.33670808
_cell_length_c   3.66835403
_cell_angle_alpha   90.00000000
_cell_angle_beta   90.00000000
_cell_angle_gamma   90.00000000
_symmetry_Int_Tables_number   1
_chemical_formula_structural   Mo
_chemical_formula_sum   Mo16
_cell_volume   197.45753985
_cell_formula_units_Z   16
loop_
 _symmetry_equiv_pos_site_id
 _symmetry_equiv_pos_as_xyz
  1  'x, y, z'
loop_
 _atom_site_type_symbol
 _atom_site_label
 _atom_site_symmetry_multiplicity
 _atom_site_fract_x
 _atom_site_fract_y
 _atom_site_fract_z
 _atom_site_occupancy
  Mo  Mo0  1  0.09386510  7.22245000  3.45127000  1
  Mo  Mo1  1  1.69201000  1.95709000  3.59346000  1
  Mo  Mo2  1  1.89013000  -0.04428980  1.84545000  1
  Mo  Mo3  1  7.21491000  1.76834000  1.68140000  1
  Mo  Mo4  1  3.72162000  -0.03630090  -0.17299100  1
  Mo  Mo5  1  5.36573000  1.72596000  3.64003000  1
  Mo  Mo6  1  5.63556000  0.03789090  1.87107000  1
  Mo  Mo7  1  3.62269000  1.78174000  1.62598000  1
  Mo  Mo8  1  7.22540000  3.57895000  3.70545000  1
  Mo  Mo9  1  1.81584000  5.37077000  0.10226800  1
  Mo  Mo10  1  1.92913000  3.64433000  1.90770000  1
  Mo  Mo11  1  -0.03523760  5.50523000  1.87789000  1
  Mo  Mo12  1  3.72137000  3.64948000  3.91817000  1
  Mo  Mo13  1  5.43047000  5.57719000  0.01097420  1
  Mo  Mo14  1  5.29907000  3.56475000  1.99401000  1
  Mo  Mo15  1  3.60144000  5.58373000  1.72822000  1
