# generated using pymatgen
data_Mo
_symmetry_space_group_name_H-M   'P 1'
_cell_length_a   7.33670808
_cell_length_b   7.33670808
_cell_length_c   3.66835403
_cell_angle_alpha   90.00000000
_cell_angle_beta   90.00000000
_cell_angle_gamma   90.00000000
_symmetry_Int_Tables_number   1
_chemical_formula_structural   Mo
_chemical_formula_sum   Mo16
_cell_volume   197.45753985
_cell_formula_units_Z   16
loop_
 _symmetry_equiv_pos_site_id
 _symmetry_equiv_pos_as_xyz
  1  'x, y, z'
loop_
 _atom_site_type_symbol
 _atom_site_label
 _atom_site_symmetry_multiplicity
 _atom_site_fract_x
 _atom_site_fract_y
 _atom_site_fract_z
 _atom_site_occupancy
  Mo  Mo0  1  0.02648090  7.17376000  3.54807000  1
  Mo  Mo1  1  1.79164000  1.81134000  3.59794000  1
  Mo  Mo2  1  1.92112000  0.16625900  1.92870000  1
  Mo  Mo3  1  7.22691000  1.83197000  1.64015000  1
  Mo  Mo4  1  3.73825000  0.01850550  -0.03186610  1
  Mo  Mo5  1  5.32871000  1.76854000  3.58391000  1
  Mo  Mo6  1  5.36085000  -0.28930000  1.73345000  1
  Mo  Mo7  1  3.62352000  1.93449000  1.87537000  1
  Mo  Mo8  1  7.21233000  3.65219000  3.56873000  1
  Mo  Mo9  1  2.15094000  5.56149000  0.13045000  1
  Mo  Mo10  1  1.79437000  3.51896000  1.81209000  1
  Mo  Mo11  1  0.05465300  5.64235000  1.77590000  1
  Mo  Mo12  1  3.44263000  3.54375000  3.73821000  1
  Mo  Mo13  1  5.52499000  5.43987000  -0.03442680  1
  Mo  Mo14  1  5.43993000  3.65609000  1.86832000  1
  Mo  Mo15  1  3.58669000  5.45704000  2.04536000  1
