# generated using pymatgen
data_Mo
_symmetry_space_group_name_H-M   'P 1'
_cell_length_a   7.33670808
_cell_length_b   7.33670808
_cell_length_c   3.66835403
_cell_angle_alpha   90.00000000
_cell_angle_beta   90.00000000
_cell_angle_gamma   90.00000000
_symmetry_Int_Tables_number   1
_chemical_formula_structural   Mo
_chemical_formula_sum   Mo16
_cell_volume   197.45753985
_cell_formula_units_Z   16
loop_
 _symmetry_equiv_pos_site_id
 _symmetry_equiv_pos_as_xyz
  1  'x, y, z'
loop_
 _atom_site_type_symbol
 _atom_site_label
 _atom_site_symmetry_multiplicity
 _atom_site_fract_x
 _atom_site_fract_y
 _atom_site_fract_z
 _atom_site_occupancy
  Mo  Mo0  1  -0.10056700  7.11013000  3.73047000  1
  Mo  Mo1  1  1.90189000  1.59920000  3.78081000  1
  Mo  Mo2  1  1.72571000  -0.01576460  1.84973000  1
  Mo  Mo3  1  7.29988000  1.68732000  1.81482000  1
  Mo  Mo4  1  3.68580000  0.03849760  0.12331600  1
  Mo  Mo5  1  5.72100000  1.97279000  3.75648000  1
  Mo  Mo6  1  5.53734000  -0.03854130  1.93435000  1
  Mo  Mo7  1  3.80703000  1.96008000  1.82501000  1
  Mo  Mo8  1  7.42126000  3.87194000  3.44476000  1
  Mo  Mo9  1  1.95315000  5.46773000  -0.14531800  1
  Mo  Mo10  1  1.61890000  3.58236000  1.60540000  1
  Mo  Mo11  1  -0.04194720  5.46217000  1.75928000  1
  Mo  Mo12  1  3.42368000  3.58542000  3.66029000  1
  Mo  Mo13  1  5.22119000  5.31760000  -0.10095000  1
  Mo  Mo14  1  5.43828000  3.86004000  1.85468000  1
  Mo  Mo15  1  3.61141000  5.42631000  1.88724000  1
