# generated using pymatgen
data_Mo
_symmetry_space_group_name_H-M   'P 1'
_cell_length_a   7.33670808
_cell_length_b   7.33670808
_cell_length_c   3.66835403
_cell_angle_alpha   90.00000000
_cell_angle_beta   90.00000000
_cell_angle_gamma   90.00000000
_symmetry_Int_Tables_number   1
_chemical_formula_structural   Mo
_chemical_formula_sum   Mo16
_cell_volume   197.45753985
_cell_formula_units_Z   16
loop_
 _symmetry_equiv_pos_site_id
 _symmetry_equiv_pos_as_xyz
  1  'x, y, z'
loop_
 _atom_site_type_symbol
 _atom_site_label
 _atom_site_symmetry_multiplicity
 _atom_site_fract_x
 _atom_site_fract_y
 _atom_site_fract_z
 _atom_site_occupancy
  Mo  Mo0  1  0.16636900  7.50181000  3.69418000  1
  Mo  Mo1  1  1.83948000  2.18427000  3.55529000  1
  Mo  Mo2  1  1.85113000  -0.16059000  2.09829000  1
  Mo  Mo3  1  7.24992000  2.05078000  1.80042000  1
  Mo  Mo4  1  3.58623000  -0.08970960  -0.02738410  1
  Mo  Mo5  1  5.45461000  1.48304000  3.71608000  1
  Mo  Mo6  1  5.62914000  -0.09004180  1.89334000  1
  Mo  Mo7  1  3.53223000  1.64906000  1.60670000  1
  Mo  Mo8  1  7.09456000  3.61605000  3.60520000  1
  Mo  Mo9  1  1.70453000  5.47077000  -0.00247239  1
  Mo  Mo10  1  1.68546000  3.67607000  1.83395000  1
  Mo  Mo11  1  0.02542360  5.55206000  1.76281000  1
  Mo  Mo12  1  3.68270000  3.71781000  3.57267000  1
  Mo  Mo13  1  5.61525000  5.48865000  0.11456400  1
  Mo  Mo14  1  5.41379000  3.45845000  1.69620000  1
  Mo  Mo15  1  3.69316000  5.37882000  1.86051000  1
