# generated using pymatgen
data_Mo
_symmetry_space_group_name_H-M   'P 1'
_cell_length_a   7.33670808
_cell_length_b   7.33670808
_cell_length_c   3.66835403
_cell_angle_alpha   90.00000000
_cell_angle_beta   90.00000000
_cell_angle_gamma   90.00000000
_symmetry_Int_Tables_number   1
_chemical_formula_structural   Mo
_chemical_formula_sum   Mo16
_cell_volume   197.45753985
_cell_formula_units_Z   16
loop_
 _symmetry_equiv_pos_site_id
 _symmetry_equiv_pos_as_xyz
  1  'x, y, z'
loop_
 _atom_site_type_symbol
 _atom_site_label
 _atom_site_symmetry_multiplicity
 _atom_site_fract_x
 _atom_site_fract_y
 _atom_site_fract_z
 _atom_site_occupancy
  Mo  Mo0  1  -0.02561960  7.19190000  3.68060000  1
  Mo  Mo1  1  1.88632000  1.85431000  3.64823000  1
  Mo  Mo2  1  1.87022000  0.03926640  1.86418000  1
  Mo  Mo3  1  7.29559000  1.70876000  1.82271000  1
  Mo  Mo4  1  3.66444000  -0.03338820  0.11206200  1
  Mo  Mo5  1  5.49776000  1.85918000  3.71490000  1
  Mo  Mo6  1  5.40733000  -0.10183100  1.92666000  1
  Mo  Mo7  1  3.63859000  1.87337000  1.78807000  1
  Mo  Mo8  1  7.24861000  3.55839000  3.58242000  1
  Mo  Mo9  1  1.61863000  5.57289000  -0.06627600  1
  Mo  Mo10  1  1.95112000  3.43685000  1.69279000  1
  Mo  Mo11  1  0.17105200  5.57665000  1.87076000  1
  Mo  Mo12  1  3.62588000  3.57026000  3.48221000  1
  Mo  Mo13  1  5.47257000  5.50914000  0.07794940  1
  Mo  Mo14  1  5.48681000  3.79393000  1.85344000  1
  Mo  Mo15  1  3.41467000  5.47764000  1.72965000  1
