# generated using pymatgen
data_Mo
_symmetry_space_group_name_H-M   'P 1'
_cell_length_a   7.33670808
_cell_length_b   7.33670808
_cell_length_c   3.66835403
_cell_angle_alpha   90.00000000
_cell_angle_beta   90.00000000
_cell_angle_gamma   90.00000000
_symmetry_Int_Tables_number   1
_chemical_formula_structural   Mo
_chemical_formula_sum   Mo16
_cell_volume   197.45753985
_cell_formula_units_Z   16
loop_
 _symmetry_equiv_pos_site_id
 _symmetry_equiv_pos_as_xyz
  1  'x, y, z'
loop_
 _atom_site_type_symbol
 _atom_site_label
 _atom_site_symmetry_multiplicity
 _atom_site_fract_x
 _atom_site_fract_y
 _atom_site_fract_z
 _atom_site_occupancy
  Mo  Mo0  1  -0.23793200  7.44697000  3.74877000  1
  Mo  Mo1  1  2.01944000  1.82976000  3.65205000  1
  Mo  Mo2  1  1.72345000  -0.05403870  1.90292000  1
  Mo  Mo3  1  7.60221000  1.76983000  1.53512000  1
  Mo  Mo4  1  3.70446000  -0.11712300  0.00080516  1
  Mo  Mo5  1  5.22256000  1.86603000  3.85393000  1
  Mo  Mo6  1  5.46991000  -0.01282610  1.97097000  1
  Mo  Mo7  1  3.60431000  1.97551000  1.94508000  1
  Mo  Mo8  1  7.35932000  3.34440000  3.43130000  1
  Mo  Mo9  1  1.76333000  5.48268000  -0.19492700  1
  Mo  Mo10  1  1.73422000  3.49647000  1.74420000  1
  Mo  Mo11  1  0.00382876  5.35679000  1.58610000  1
  Mo  Mo12  1  3.54683000  3.91256000  3.76680000  1
  Mo  Mo13  1  5.59584000  5.43138000  0.05755540  1
  Mo  Mo14  1  5.49226000  3.64687000  1.86769000  1
  Mo  Mo15  1  3.61996000  5.51205000  1.91197000  1
