# generated using pymatgen
data_Mo
_symmetry_space_group_name_H-M   'P 1'
_cell_length_a   7.29789726
_cell_length_b   7.29789726
_cell_length_c   3.64894867
_cell_angle_alpha   90.00000000
_cell_angle_beta   90.00000000
_cell_angle_gamma   90.00000000
_symmetry_Int_Tables_number   1
_chemical_formula_structural   Mo
_chemical_formula_sum   Mo16
_cell_volume   194.34046797
_cell_formula_units_Z   16
loop_
 _symmetry_equiv_pos_site_id
 _symmetry_equiv_pos_as_xyz
  1  'x, y, z'
loop_
 _atom_site_type_symbol
 _atom_site_label
 _atom_site_symmetry_multiplicity
 _atom_site_fract_x
 _atom_site_fract_y
 _atom_site_fract_z
 _atom_site_occupancy
  Mo  Mo0  1  7.20515000  -0.04803300  -0.00266189  1
  Mo  Mo1  1  1.78320000  1.73550000  -0.04731690  1
  Mo  Mo2  1  1.90915000  7.10902000  1.91340000  1
  Mo  Mo3  1  7.40342000  1.78524000  1.80077000  1
  Mo  Mo4  1  3.72595000  7.17016000  3.68319000  1
  Mo  Mo5  1  5.40149000  1.94780000  0.08694940  1
  Mo  Mo6  1  5.39412000  7.54333000  1.83461000  1
  Mo  Mo7  1  3.53799000  1.68758000  1.75045000  1
  Mo  Mo8  1  7.43118000  3.71424000  3.55608000  1
  Mo  Mo9  1  1.75909000  5.53486000  -0.14163400  1
  Mo  Mo10  1  1.84255000  3.67390000  1.73065000  1
  Mo  Mo11  1  7.17596000  5.53571000  1.81777000  1
  Mo  Mo12  1  3.57386000  3.63600000  0.14839200  1
  Mo  Mo13  1  5.44986000  5.43123000  3.64292000  1
  Mo  Mo14  1  5.43898000  3.62659000  1.90391000  1
  Mo  Mo15  1  3.78786000  5.43877000  1.78557000  1
