# generated using pymatgen
data_Mo
_symmetry_space_group_name_H-M   'P 1'
_cell_length_a   7.33670808
_cell_length_b   7.33670808
_cell_length_c   3.66835403
_cell_angle_alpha   90.00000000
_cell_angle_beta   90.00000000
_cell_angle_gamma   90.00000000
_symmetry_Int_Tables_number   1
_chemical_formula_structural   Mo
_chemical_formula_sum   Mo16
_cell_volume   197.45753985
_cell_formula_units_Z   16
loop_
 _symmetry_equiv_pos_site_id
 _symmetry_equiv_pos_as_xyz
  1  'x, y, z'
loop_
 _atom_site_type_symbol
 _atom_site_label
 _atom_site_symmetry_multiplicity
 _atom_site_fract_x
 _atom_site_fract_y
 _atom_site_fract_z
 _atom_site_occupancy
  Mo  Mo0  1  -0.14266200  7.19248000  3.47316000  1
  Mo  Mo1  1  1.68344000  1.81650000  3.56018000  1
  Mo  Mo2  1  1.83486000  0.05221110  1.66867000  1
  Mo  Mo3  1  7.21973000  1.67918000  1.85086000  1
  Mo  Mo4  1  3.89150000  0.11848000  -0.01344130  1
  Mo  Mo5  1  5.68723000  1.83747000  3.80792000  1
  Mo  Mo6  1  5.41293000  -0.17751700  1.77916000  1
  Mo  Mo7  1  3.70547000  1.85556000  1.61886000  1
  Mo  Mo8  1  7.14620000  3.81472000  3.71404000  1
  Mo  Mo9  1  1.80665000  5.43605000  -0.05009100  1
  Mo  Mo10  1  1.85048000  3.47730000  1.75891000  1
  Mo  Mo11  1  0.17618700  5.30272000  1.87387000  1
  Mo  Mo12  1  3.43448000  3.62624000  3.87638000  1
  Mo  Mo13  1  5.53963000  5.45519000  0.05091590  1
  Mo  Mo14  1  5.33445000  3.81188000  2.04834000  1
  Mo  Mo15  1  3.64343000  5.58883000  1.76261000  1
