# generated using pymatgen
data_Mo
_symmetry_space_group_name_H-M   'P 1'
_cell_length_a   7.33670808
_cell_length_b   7.33670808
_cell_length_c   3.66835403
_cell_angle_alpha   90.00000000
_cell_angle_beta   90.00000000
_cell_angle_gamma   90.00000000
_symmetry_Int_Tables_number   1
_chemical_formula_structural   Mo
_chemical_formula_sum   Mo16
_cell_volume   197.45753985
_cell_formula_units_Z   16
loop_
 _symmetry_equiv_pos_site_id
 _symmetry_equiv_pos_as_xyz
  1  'x, y, z'
loop_
 _atom_site_type_symbol
 _atom_site_label
 _atom_site_symmetry_multiplicity
 _atom_site_fract_x
 _atom_site_fract_y
 _atom_site_fract_z
 _atom_site_occupancy
  Mo  Mo0  1  0.26125500  7.27503000  3.65264000  1
  Mo  Mo1  1  1.67301000  1.94441000  3.61520000  1
  Mo  Mo2  1  1.85687000  0.11174300  1.73924000  1
  Mo  Mo3  1  7.23718000  1.70770000  1.80104000  1
  Mo  Mo4  1  3.63773000  -0.02713330  0.09896770  1
  Mo  Mo5  1  5.57965000  1.83256000  3.57430000  1
  Mo  Mo6  1  5.44265000  0.11122200  1.91989000  1
  Mo  Mo7  1  3.59809000  1.79750000  1.95074000  1
  Mo  Mo8  1  7.28178000  3.72175000  3.62427000  1
  Mo  Mo9  1  2.02649000  5.38646000  0.00324456  1
  Mo  Mo10  1  1.61069000  3.57916000  1.85767000  1
  Mo  Mo11  1  -0.02463710  5.26366000  1.74039000  1
  Mo  Mo12  1  3.52645000  3.60000000  3.52941000  1
  Mo  Mo13  1  5.42935000  5.47106000  -0.00383064  1
  Mo  Mo14  1  5.30112000  3.60971000  1.68738000  1
  Mo  Mo15  1  3.78633000  5.50246000  1.98981000  1
