# generated using pymatgen
data_Mo
_symmetry_space_group_name_H-M   'P 1'
_cell_length_a   7.33670808
_cell_length_b   7.33670808
_cell_length_c   3.66835403
_cell_angle_alpha   90.00000000
_cell_angle_beta   90.00000000
_cell_angle_gamma   90.00000000
_symmetry_Int_Tables_number   1
_chemical_formula_structural   Mo
_chemical_formula_sum   Mo16
_cell_volume   197.45753985
_cell_formula_units_Z   16
loop_
 _symmetry_equiv_pos_site_id
 _symmetry_equiv_pos_as_xyz
  1  'x, y, z'
loop_
 _atom_site_type_symbol
 _atom_site_label
 _atom_site_symmetry_multiplicity
 _atom_site_fract_x
 _atom_site_fract_y
 _atom_site_fract_z
 _atom_site_occupancy
  Mo  Mo0  1  0.02733660  7.10573000  3.51961000  1
  Mo  Mo1  1  1.90400000  1.82247000  3.58901000  1
  Mo  Mo2  1  1.67965000  0.06616180  1.69578000  1
  Mo  Mo3  1  7.40832000  1.74515000  1.81665000  1
  Mo  Mo4  1  3.62167000  -0.03369540  0.07693160  1
  Mo  Mo5  1  5.53530000  1.70621000  3.61057000  1
  Mo  Mo6  1  5.48353000  0.05514750  1.82419000  1
  Mo  Mo7  1  3.59068000  1.64762000  1.77441000  1
  Mo  Mo8  1  7.27474000  3.60830000  3.69850000  1
  Mo  Mo9  1  1.80921000  5.52361000  -0.02195830  1
  Mo  Mo10  1  1.59787000  3.48164000  1.84858000  1
  Mo  Mo11  1  0.00676232  5.56624000  1.75834000  1
  Mo  Mo12  1  3.89968000  3.68501000  3.64057000  1
  Mo  Mo13  1  5.39760000  5.62893000  -0.00667778  1
  Mo  Mo14  1  5.53098000  3.65860000  1.86539000  1
  Mo  Mo15  1  3.45667000  5.62017000  2.09046000  1
