# generated using pymatgen
data_Mo
_symmetry_space_group_name_H-M   'P 1'
_cell_length_a   7.33670808
_cell_length_b   7.33670808
_cell_length_c   3.66835403
_cell_angle_alpha   90.00000000
_cell_angle_beta   90.00000000
_cell_angle_gamma   90.00000000
_symmetry_Int_Tables_number   1
_chemical_formula_structural   Mo
_chemical_formula_sum   Mo16
_cell_volume   197.45753985
_cell_formula_units_Z   16
loop_
 _symmetry_equiv_pos_site_id
 _symmetry_equiv_pos_as_xyz
  1  'x, y, z'
loop_
 _atom_site_type_symbol
 _atom_site_label
 _atom_site_symmetry_multiplicity
 _atom_site_fract_x
 _atom_site_fract_y
 _atom_site_fract_z
 _atom_site_occupancy
  Mo  Mo0  1  0.16574900  7.14193000  3.66308000  1
  Mo  Mo1  1  1.70310000  1.82602000  3.67427000  1
  Mo  Mo2  1  1.71436000  0.03074480  1.77431000  1
  Mo  Mo3  1  7.23256000  1.71990000  1.97954000  1
  Mo  Mo4  1  3.65069000  0.09724780  -0.10597700  1
  Mo  Mo5  1  5.53575000  1.70635000  3.58199000  1
  Mo  Mo6  1  5.52452000  -0.11727300  1.76733000  1
  Mo  Mo7  1  3.66493000  1.65100000  1.73880000  1
  Mo  Mo8  1  7.37243000  3.54183000  3.87391000  1
  Mo  Mo9  1  1.85619000  5.56671000  0.03445800  1
  Mo  Mo10  1  1.68911000  3.75488000  1.88621000  1
  Mo  Mo11  1  -0.10418100  5.49270000  1.81669000  1
  Mo  Mo12  1  3.65132000  3.52624000  3.56537000  1
  Mo  Mo13  1  5.58772000  5.63375000  -0.05343110  1
  Mo  Mo14  1  5.27839000  3.71010000  1.76062000  1
  Mo  Mo15  1  3.70135000  5.60516000  1.82317000  1
