# generated using pymatgen
data_Mo
_symmetry_space_group_name_H-M   'P 1'
_cell_length_a   7.33670808
_cell_length_b   7.33670808
_cell_length_c   3.66835403
_cell_angle_alpha   90.00000000
_cell_angle_beta   90.00000000
_cell_angle_gamma   90.00000000
_symmetry_Int_Tables_number   1
_chemical_formula_structural   Mo
_chemical_formula_sum   Mo16
_cell_volume   197.45753985
_cell_formula_units_Z   16
loop_
 _symmetry_equiv_pos_site_id
 _symmetry_equiv_pos_as_xyz
  1  'x, y, z'
loop_
 _atom_site_type_symbol
 _atom_site_label
 _atom_site_symmetry_multiplicity
 _atom_site_fract_x
 _atom_site_fract_y
 _atom_site_fract_z
 _atom_site_occupancy
  Mo  Mo0  1  -0.05247150  7.23530000  3.58221000  1
  Mo  Mo1  1  1.67901000  1.80723000  3.77248000  1
  Mo  Mo2  1  1.74903000  0.00718470  1.77901000  1
  Mo  Mo3  1  7.34806000  1.97361000  1.89805000  1
  Mo  Mo4  1  3.52095000  -0.28882700  0.08477130  1
  Mo  Mo5  1  5.52635000  1.72528000  3.68831000  1
  Mo  Mo6  1  5.48375000  0.09553660  1.71444000  1
  Mo  Mo7  1  3.61014000  1.87676000  1.88302000  1
  Mo  Mo8  1  7.26820000  3.80891000  3.68098000  1
  Mo  Mo9  1  1.80116000  5.55113000  -0.08764390  1
  Mo  Mo10  1  1.94947000  3.62612000  1.49245000  1
  Mo  Mo11  1  0.00395174  5.45580000  1.90556000  1
  Mo  Mo12  1  3.69753000  3.64978000  3.71611000  1
  Mo  Mo13  1  5.35823000  5.50501000  -0.02100080  1
  Mo  Mo14  1  5.48983000  3.56504000  1.82843000  1
  Mo  Mo15  1  3.79081000  5.29344000  1.86318000  1
