# generated using pymatgen
data_Mo
_symmetry_space_group_name_H-M   'P 1'
_cell_length_a   7.33670808
_cell_length_b   7.33670808
_cell_length_c   3.66835403
_cell_angle_alpha   90.00000000
_cell_angle_beta   90.00000000
_cell_angle_gamma   90.00000000
_symmetry_Int_Tables_number   1
_chemical_formula_structural   Mo
_chemical_formula_sum   Mo16
_cell_volume   197.45753985
_cell_formula_units_Z   16
loop_
 _symmetry_equiv_pos_site_id
 _symmetry_equiv_pos_as_xyz
  1  'x, y, z'
loop_
 _atom_site_type_symbol
 _atom_site_label
 _atom_site_symmetry_multiplicity
 _atom_site_fract_x
 _atom_site_fract_y
 _atom_site_fract_z
 _atom_site_occupancy
  Mo  Mo0  1  0.07504100  7.17678000  3.85675000  1
  Mo  Mo1  1  1.89351000  1.83136000  3.60689000  1
  Mo  Mo2  1  1.81159000  -0.12445700  1.74242000  1
  Mo  Mo3  1  7.42580000  1.81455000  1.77241000  1
  Mo  Mo4  1  3.68663000  0.00628204  -0.01944770  1
  Mo  Mo5  1  5.39747000  1.79738000  3.77195000  1
  Mo  Mo6  1  5.55642000  -0.06039990  1.79365000  1
  Mo  Mo7  1  3.73775000  1.81626000  1.78703000  1
  Mo  Mo8  1  7.21539000  3.55919000  3.81823000  1
  Mo  Mo9  1  1.80577000  5.53608000  -0.10368800  1
  Mo  Mo10  1  1.77626000  3.76926000  1.55587000  1
  Mo  Mo11  1  -0.14653600  5.51131000  1.91956000  1
  Mo  Mo12  1  3.47954000  3.64728000  3.60429000  1
  Mo  Mo13  1  5.40051000  5.40383000  -0.02957540  1
  Mo  Mo14  1  5.49918000  3.68037000  1.97657000  1
  Mo  Mo15  1  3.60967000  5.52222000  1.72745000  1
