# generated using pymatgen
data_Mo
_symmetry_space_group_name_H-M   'P 1'
_cell_length_a   7.33670808
_cell_length_b   7.33670808
_cell_length_c   3.66835403
_cell_angle_alpha   90.00000000
_cell_angle_beta   90.00000000
_cell_angle_gamma   90.00000000
_symmetry_Int_Tables_number   1
_chemical_formula_structural   Mo
_chemical_formula_sum   Mo16
_cell_volume   197.45753985
_cell_formula_units_Z   16
loop_
 _symmetry_equiv_pos_site_id
 _symmetry_equiv_pos_as_xyz
  1  'x, y, z'
loop_
 _atom_site_type_symbol
 _atom_site_label
 _atom_site_symmetry_multiplicity
 _atom_site_fract_x
 _atom_site_fract_y
 _atom_site_fract_z
 _atom_site_occupancy
  Mo  Mo0  1  -0.18919900  7.36398000  3.65573000  1
  Mo  Mo1  1  1.59702000  1.86623000  3.57833000  1
  Mo  Mo2  1  2.00303000  0.06546340  1.96706000  1
  Mo  Mo3  1  7.21362000  1.71635000  1.84308000  1
  Mo  Mo4  1  3.62548000  -0.04288630  0.06073690  1
  Mo  Mo5  1  5.68862000  1.86900000  3.56711000  1
  Mo  Mo6  1  5.37930000  -0.10222600  1.95843000  1
  Mo  Mo7  1  3.69308000  1.87058000  1.62112000  1
  Mo  Mo8  1  7.45690000  3.72494000  3.54733000  1
  Mo  Mo9  1  1.75744000  5.40380000  0.01689420  1
  Mo  Mo10  1  1.74720000  3.56492000  1.65628000  1
  Mo  Mo11  1  0.05096090  5.50552000  1.85187000  1
  Mo  Mo12  1  3.75918000  3.54348000  3.64709000  1
  Mo  Mo13  1  5.30522000  5.38041000  0.12494100  1
  Mo  Mo14  1  5.59515000  3.81279000  1.74882000  1
  Mo  Mo15  1  3.54103000  5.34494000  1.93553000  1
