# generated using pymatgen
data_Mo
_symmetry_space_group_name_H-M   'P 1'
_cell_length_a   7.33670808
_cell_length_b   7.33670808
_cell_length_c   3.66835403
_cell_angle_alpha   90.00000000
_cell_angle_beta   90.00000000
_cell_angle_gamma   90.00000000
_symmetry_Int_Tables_number   1
_chemical_formula_structural   Mo
_chemical_formula_sum   Mo16
_cell_volume   197.45753985
_cell_formula_units_Z   16
loop_
 _symmetry_equiv_pos_site_id
 _symmetry_equiv_pos_as_xyz
  1  'x, y, z'
loop_
 _atom_site_type_symbol
 _atom_site_label
 _atom_site_symmetry_multiplicity
 _atom_site_fract_x
 _atom_site_fract_y
 _atom_site_fract_z
 _atom_site_occupancy
  Mo  Mo0  1  -0.03767560  7.13209000  3.57346000  1
  Mo  Mo1  1  1.72921000  1.95076000  3.68378000  1
  Mo  Mo2  1  1.71606000  -0.10805600  1.88256000  1
  Mo  Mo3  1  7.14385000  1.65189000  1.88284000  1
  Mo  Mo4  1  3.71728000  -0.08950600  -0.13865600  1
  Mo  Mo5  1  5.49172000  1.82601000  3.59578000  1
  Mo  Mo6  1  5.65434000  0.02025070  1.75793000  1
  Mo  Mo7  1  3.60941000  1.63131000  1.83807000  1
  Mo  Mo8  1  7.32361000  3.68368000  3.57915000  1
  Mo  Mo9  1  1.92015000  5.37578000  0.08371040  1
  Mo  Mo10  1  1.79568000  3.62222000  1.91064000  1
  Mo  Mo11  1  0.13534700  5.61433000  1.68026000  1
  Mo  Mo12  1  3.57692000  3.72336000  3.80365000  1
  Mo  Mo13  1  5.56311000  5.41394000  -0.15613600  1
  Mo  Mo14  1  5.36411000  3.83512000  1.91149000  1
  Mo  Mo15  1  3.52087000  5.60412000  1.89183000  1
