# generated using pymatgen
data_Mo
_symmetry_space_group_name_H-M   'P 1'
_cell_length_a   7.33670808
_cell_length_b   7.33670808
_cell_length_c   3.66835403
_cell_angle_alpha   90.00000000
_cell_angle_beta   90.00000000
_cell_angle_gamma   90.00000000
_symmetry_Int_Tables_number   1
_chemical_formula_structural   Mo
_chemical_formula_sum   Mo16
_cell_volume   197.45753985
_cell_formula_units_Z   16
loop_
 _symmetry_equiv_pos_site_id
 _symmetry_equiv_pos_as_xyz
  1  'x, y, z'
loop_
 _atom_site_type_symbol
 _atom_site_label
 _atom_site_symmetry_multiplicity
 _atom_site_fract_x
 _atom_site_fract_y
 _atom_site_fract_z
 _atom_site_occupancy
  Mo  Mo0  1  0.03695480  7.35920000  3.79584000  1
  Mo  Mo1  1  1.80264000  1.64627000  3.63670000  1
  Mo  Mo2  1  1.80455000  -0.04269480  1.96066000  1
  Mo  Mo3  1  7.34416000  1.77885000  1.67951000  1
  Mo  Mo4  1  3.61928000  -0.14229700  -0.03749670  1
  Mo  Mo5  1  5.37525000  1.77095000  3.59208000  1
  Mo  Mo6  1  5.31606000  -0.04438540  1.81134000  1
  Mo  Mo7  1  3.55259000  1.74263000  1.74323000  1
  Mo  Mo8  1  7.17126000  3.56266000  3.50278000  1
  Mo  Mo9  1  1.76558000  5.59187000  0.07052620  1
  Mo  Mo10  1  1.78841000  3.62767000  1.93472000  1
  Mo  Mo11  1  0.06644280  5.53512000  1.82943000  1
  Mo  Mo12  1  3.85978000  3.74921000  3.66710000  1
  Mo  Mo13  1  5.64812000  5.52413000  -0.05176150  1
  Mo  Mo14  1  5.45595000  3.76566000  1.71093000  1
  Mo  Mo15  1  3.61696000  5.46247000  1.93475000  1
