# generated using pymatgen
data_Mo
_symmetry_space_group_name_H-M   'P 1'
_cell_length_a   7.33670808
_cell_length_b   7.33670808
_cell_length_c   3.66835403
_cell_angle_alpha   90.00000000
_cell_angle_beta   90.00000000
_cell_angle_gamma   90.00000000
_symmetry_Int_Tables_number   1
_chemical_formula_structural   Mo
_chemical_formula_sum   Mo16
_cell_volume   197.45753985
_cell_formula_units_Z   16
loop_
 _symmetry_equiv_pos_site_id
 _symmetry_equiv_pos_as_xyz
  1  'x, y, z'
loop_
 _atom_site_type_symbol
 _atom_site_label
 _atom_site_symmetry_multiplicity
 _atom_site_fract_x
 _atom_site_fract_y
 _atom_site_fract_z
 _atom_site_occupancy
  Mo  Mo0  1  -0.17311900  7.18862000  3.70305000  1
  Mo  Mo1  1  1.88585000  1.77473000  3.62472000  1
  Mo  Mo2  1  1.87519000  -0.05197380  1.89996000  1
  Mo  Mo3  1  7.22154000  1.72204000  1.99408000  1
  Mo  Mo4  1  3.67134000  0.11432800  -0.14763600  1
  Mo  Mo5  1  5.41956000  1.98924000  3.76877000  1
  Mo  Mo6  1  5.69020000  -0.11259000  1.83261000  1
  Mo  Mo7  1  3.63752000  1.65443000  1.83166000  1
  Mo  Mo8  1  7.26169000  3.63703000  3.78568000  1
  Mo  Mo9  1  1.74628000  5.62723000  -0.11346200  1
  Mo  Mo10  1  1.94319000  3.78631000  1.65908000  1
  Mo  Mo11  1  -0.12725400  5.48504000  1.83141000  1
  Mo  Mo12  1  3.56567000  3.69771000  3.43472000  1
  Mo  Mo13  1  5.45705000  5.30525000  -0.07053320  1
  Mo  Mo14  1  5.45241000  3.51521000  1.92402000  1
  Mo  Mo15  1  3.69690000  5.55469000  1.82220000  1
