# generated using pymatgen
data_Mo
_symmetry_space_group_name_H-M   'P 1'
_cell_length_a   7.29789726
_cell_length_b   7.29789726
_cell_length_c   3.64894867
_cell_angle_alpha   90.00000000
_cell_angle_beta   90.00000000
_cell_angle_gamma   90.00000000
_symmetry_Int_Tables_number   1
_chemical_formula_structural   Mo
_chemical_formula_sum   Mo16
_cell_volume   194.34046797
_cell_formula_units_Z   16
loop_
 _symmetry_equiv_pos_site_id
 _symmetry_equiv_pos_as_xyz
  1  'x, y, z'
loop_
 _atom_site_type_symbol
 _atom_site_label
 _atom_site_symmetry_multiplicity
 _atom_site_fract_x
 _atom_site_fract_y
 _atom_site_fract_z
 _atom_site_occupancy
  Mo  Mo0  1  7.18963000  -0.14515300  -0.11426000  1
  Mo  Mo1  1  1.83789000  1.84515000  -0.00557299  1
  Mo  Mo2  1  1.72227000  7.16224000  1.67264000  1
  Mo  Mo3  1  7.25801000  1.84663000  1.89533000  1
  Mo  Mo4  1  3.73411000  7.32558000  3.56650000  1
  Mo  Mo5  1  5.42089000  1.83940000  -0.01713550  1
  Mo  Mo6  1  5.63252000  7.42096000  1.75712000  1
  Mo  Mo7  1  3.50002000  1.78902000  1.73223000  1
  Mo  Mo8  1  7.28318000  3.77962000  3.74287000  1
  Mo  Mo9  1  1.93648000  5.43815000  0.02162590  1
  Mo  Mo10  1  1.84824000  3.59937000  1.95335000  1
  Mo  Mo11  1  7.25542000  5.42548000  1.81054000  1
  Mo  Mo12  1  3.54901000  3.64341000  -0.08550430  1
  Mo  Mo13  1  5.48577000  5.38296000  3.72263000  1
  Mo  Mo14  1  5.42327000  3.66562000  1.95684000  1
  Mo  Mo15  1  3.74308000  5.50346000  1.85385000  1
