# generated using pymatgen
data_Mo
_symmetry_space_group_name_H-M   'P 1'
_cell_length_a   7.33670808
_cell_length_b   7.33670808
_cell_length_c   3.66835403
_cell_angle_alpha   90.00000000
_cell_angle_beta   90.00000000
_cell_angle_gamma   90.00000000
_symmetry_Int_Tables_number   1
_chemical_formula_structural   Mo
_chemical_formula_sum   Mo16
_cell_volume   197.45753985
_cell_formula_units_Z   16
loop_
 _symmetry_equiv_pos_site_id
 _symmetry_equiv_pos_as_xyz
  1  'x, y, z'
loop_
 _atom_site_type_symbol
 _atom_site_label
 _atom_site_symmetry_multiplicity
 _atom_site_fract_x
 _atom_site_fract_y
 _atom_site_fract_z
 _atom_site_occupancy
  Mo  Mo0  1  0.02227060  7.24842000  3.58663000  1
  Mo  Mo1  1  1.82820000  1.73183000  3.64597000  1
  Mo  Mo2  1  1.80173000  -0.10708900  1.68086000  1
  Mo  Mo3  1  7.50308000  1.61626000  1.67125000  1
  Mo  Mo4  1  3.59008000  0.09118300  0.20746700  1
  Mo  Mo5  1  5.61277000  1.85669000  3.66152000  1
  Mo  Mo6  1  5.42257000  0.08880620  1.79863000  1
  Mo  Mo7  1  3.74758000  1.94557000  1.90024000  1
  Mo  Mo8  1  7.37514000  3.71321000  3.61672000  1
  Mo  Mo9  1  1.74016000  5.43856000  0.12103300  1
  Mo  Mo10  1  1.81056000  3.53214000  1.81239000  1
  Mo  Mo11  1  -0.10741600  5.38554000  1.72579000  1
  Mo  Mo12  1  3.55286000  3.63506000  3.58747000  1
  Mo  Mo13  1  5.40721000  5.52432000  -0.02494150  1
  Mo  Mo14  1  5.36274000  3.64601000  1.96758000  1
  Mo  Mo15  1  3.55448000  5.54079000  1.82176000  1
