# generated using pymatgen
data_Mo
_symmetry_space_group_name_H-M   'P 1'
_cell_length_a   7.33670808
_cell_length_b   7.33670808
_cell_length_c   3.66835403
_cell_angle_alpha   90.00000000
_cell_angle_beta   90.00000000
_cell_angle_gamma   90.00000000
_symmetry_Int_Tables_number   1
_chemical_formula_structural   Mo
_chemical_formula_sum   Mo16
_cell_volume   197.45753985
_cell_formula_units_Z   16
loop_
 _symmetry_equiv_pos_site_id
 _symmetry_equiv_pos_as_xyz
  1  'x, y, z'
loop_
 _atom_site_type_symbol
 _atom_site_label
 _atom_site_symmetry_multiplicity
 _atom_site_fract_x
 _atom_site_fract_y
 _atom_site_fract_z
 _atom_site_occupancy
  Mo  Mo0  1  -0.15879200  7.14079000  3.55574000  1
  Mo  Mo1  1  1.75587000  1.67761000  3.77087000  1
  Mo  Mo2  1  1.61675000  -0.08053700  1.90850000  1
  Mo  Mo3  1  7.32567000  1.89460000  1.91786000  1
  Mo  Mo4  1  3.63299000  0.07482660  -0.05388790  1
  Mo  Mo5  1  5.42272000  1.89346000  3.80027000  1
  Mo  Mo6  1  5.48633000  -0.15491600  1.69131000  1
  Mo  Mo7  1  3.89038000  1.76766000  1.87756000  1
  Mo  Mo8  1  7.53229000  3.62718000  3.69322000  1
  Mo  Mo9  1  1.64561000  5.64722000  -0.12675100  1
  Mo  Mo10  1  1.89034000  3.32353000  1.94794000  1
  Mo  Mo11  1  0.08145340  5.54702000  1.62473000  1
  Mo  Mo12  1  3.60382000  3.70036000  3.71674000  1
  Mo  Mo13  1  5.48344000  5.45568000  -0.16445200  1
  Mo  Mo14  1  5.46341000  3.82876000  1.79583000  1
  Mo  Mo15  1  3.55170000  5.54404000  1.82488000  1
