# generated using pymatgen
data_Mo
_symmetry_space_group_name_H-M   'P 1'
_cell_length_a   7.33670808
_cell_length_b   7.33670808
_cell_length_c   3.66835403
_cell_angle_alpha   90.00000000
_cell_angle_beta   90.00000000
_cell_angle_gamma   90.00000000
_symmetry_Int_Tables_number   1
_chemical_formula_structural   Mo
_chemical_formula_sum   Mo16
_cell_volume   197.45753985
_cell_formula_units_Z   16
loop_
 _symmetry_equiv_pos_site_id
 _symmetry_equiv_pos_as_xyz
  1  'x, y, z'
loop_
 _atom_site_type_symbol
 _atom_site_label
 _atom_site_symmetry_multiplicity
 _atom_site_fract_x
 _atom_site_fract_y
 _atom_site_fract_z
 _atom_site_occupancy
  Mo  Mo0  1  0.15344900  7.42708000  4.00921000  1
  Mo  Mo1  1  1.86471000  1.85951000  3.59300000  1
  Mo  Mo2  1  1.93548000  -0.14448600  2.10516000  1
  Mo  Mo3  1  7.28088000  1.94659000  1.75277000  1
  Mo  Mo4  1  3.61162000  -0.08531050  0.14506100  1
  Mo  Mo5  1  5.45445000  1.73343000  3.60203000  1
  Mo  Mo6  1  5.49816000  -0.15473400  1.77170000  1
  Mo  Mo7  1  3.46779000  1.77801000  1.67836000  1
  Mo  Mo8  1  7.32407000  3.82670000  3.64181000  1
  Mo  Mo9  1  1.77917000  5.44861000  -0.01772400  1
  Mo  Mo10  1  1.76136000  3.63741000  1.71132000  1
  Mo  Mo11  1  -0.09355640  5.39780000  1.67098000  1
  Mo  Mo12  1  3.78069000  3.71838000  3.61743000  1
  Mo  Mo13  1  5.47991000  5.62738000  -0.08894640  1
  Mo  Mo14  1  5.34615000  3.51787000  1.75125000  1
  Mo  Mo15  1  3.57968000  5.35305000  1.83693000  1
