# generated using pymatgen
data_Mo
_symmetry_space_group_name_H-M   'P 1'
_cell_length_a   7.33670808
_cell_length_b   7.33670808
_cell_length_c   3.66835403
_cell_angle_alpha   90.00000000
_cell_angle_beta   90.00000000
_cell_angle_gamma   90.00000000
_symmetry_Int_Tables_number   1
_chemical_formula_structural   Mo
_chemical_formula_sum   Mo16
_cell_volume   197.45753985
_cell_formula_units_Z   16
loop_
 _symmetry_equiv_pos_site_id
 _symmetry_equiv_pos_as_xyz
  1  'x, y, z'
loop_
 _atom_site_type_symbol
 _atom_site_label
 _atom_site_symmetry_multiplicity
 _atom_site_fract_x
 _atom_site_fract_y
 _atom_site_fract_z
 _atom_site_occupancy
  Mo  Mo0  1  0.06513970  7.37243000  3.62518000  1
  Mo  Mo1  1  1.93356000  1.87191000  3.75031000  1
  Mo  Mo2  1  1.88378000  -0.09403030  1.85038000  1
  Mo  Mo3  1  7.35365000  1.89504000  1.84967000  1
  Mo  Mo4  1  3.64353000  0.07633120  0.06822800  1
  Mo  Mo5  1  5.50698000  1.78819000  3.66431000  1
  Mo  Mo6  1  5.43040000  0.04497660  1.63566000  1
  Mo  Mo7  1  3.51783000  1.69981000  1.92779000  1
  Mo  Mo8  1  7.14651000  3.62624000  3.79802000  1
  Mo  Mo9  1  1.78916000  5.34851000  -0.15551100  1
  Mo  Mo10  1  1.66854000  3.70212000  1.77304000  1
  Mo  Mo11  1  -0.17327300  5.52774000  1.63856000  1
  Mo  Mo12  1  3.81861000  3.54391000  3.78067000  1
  Mo  Mo13  1  5.54555000  5.44769000  -0.09216610  1
  Mo  Mo14  1  5.33451000  3.56935000  1.87221000  1
  Mo  Mo15  1  3.75951000  5.46708000  1.79401000  1
