# generated using pymatgen
data_Mo
_symmetry_space_group_name_H-M   'P 1'
_cell_length_a   7.33670808
_cell_length_b   7.33670808
_cell_length_c   3.66835403
_cell_angle_alpha   90.00000000
_cell_angle_beta   90.00000000
_cell_angle_gamma   90.00000000
_symmetry_Int_Tables_number   1
_chemical_formula_structural   Mo
_chemical_formula_sum   Mo16
_cell_volume   197.45753985
_cell_formula_units_Z   16
loop_
 _symmetry_equiv_pos_site_id
 _symmetry_equiv_pos_as_xyz
  1  'x, y, z'
loop_
 _atom_site_type_symbol
 _atom_site_label
 _atom_site_symmetry_multiplicity
 _atom_site_fract_x
 _atom_site_fract_y
 _atom_site_fract_z
 _atom_site_occupancy
  Mo  Mo0  1  0.13285000  7.32840000  3.63214000  1
  Mo  Mo1  1  1.82781000  1.88775000  3.43505000  1
  Mo  Mo2  1  1.88884000  0.07283140  1.68000000  1
  Mo  Mo3  1  7.45438000  1.68375000  1.76141000  1
  Mo  Mo4  1  3.62795000  -0.01245260  -0.06192340  1
  Mo  Mo5  1  5.44147000  1.64932000  3.57755000  1
  Mo  Mo6  1  5.64766000  -0.23877100  1.93157000  1
  Mo  Mo7  1  3.73648000  1.76775000  1.57546000  1
  Mo  Mo8  1  7.16647000  3.54156000  3.79377000  1
  Mo  Mo9  1  1.73620000  5.40873000  -0.03066810  1
  Mo  Mo10  1  1.73133000  3.60881000  1.69431000  1
  Mo  Mo11  1  -0.02921820  5.55241000  1.92229000  1
  Mo  Mo12  1  3.56779000  3.72223000  3.85613000  1
  Mo  Mo13  1  5.48412000  5.63674000  0.08079350  1
  Mo  Mo14  1  5.28920000  3.85083000  1.87228000  1
  Mo  Mo15  1  3.52066000  5.42742000  2.06020000  1
