# generated using pymatgen
data_Mo
_symmetry_space_group_name_H-M   'P 1'
_cell_length_a   7.33670808
_cell_length_b   7.33670808
_cell_length_c   3.66835403
_cell_angle_alpha   90.00000000
_cell_angle_beta   90.00000000
_cell_angle_gamma   90.00000000
_symmetry_Int_Tables_number   1
_chemical_formula_structural   Mo
_chemical_formula_sum   Mo16
_cell_volume   197.45753985
_cell_formula_units_Z   16
loop_
 _symmetry_equiv_pos_site_id
 _symmetry_equiv_pos_as_xyz
  1  'x, y, z'
loop_
 _atom_site_type_symbol
 _atom_site_label
 _atom_site_symmetry_multiplicity
 _atom_site_fract_x
 _atom_site_fract_y
 _atom_site_fract_z
 _atom_site_occupancy
  Mo  Mo0  1  -0.06706760  7.30049000  3.59217000  1
  Mo  Mo1  1  1.82169000  1.81352000  3.66247000  1
  Mo  Mo2  1  1.98428000  -0.18098300  1.68652000  1
  Mo  Mo3  1  7.46289000  1.89485000  1.81150000  1
  Mo  Mo4  1  3.55886000  0.01302580  0.00008963  1
  Mo  Mo5  1  5.51377000  1.77628000  3.75949000  1
  Mo  Mo6  1  5.46479000  0.07721140  1.76731000  1
  Mo  Mo7  1  3.50190000  1.82432000  1.93896000  1
  Mo  Mo8  1  7.07367000  3.55044000  3.75090000  1
  Mo  Mo9  1  1.87372000  5.45247000  -0.06276750  1
  Mo  Mo10  1  1.74385000  3.67336000  1.62342000  1
  Mo  Mo11  1  -0.03117730  5.67125000  1.80629000  1
  Mo  Mo12  1  3.55524000  3.45132000  3.69346000  1
  Mo  Mo13  1  5.59913000  5.41563000  0.04453650  1
  Mo  Mo14  1  5.40312000  3.68290000  1.84393000  1
  Mo  Mo15  1  3.76532000  5.47122000  1.86208000  1
