# generated using pymatgen
data_Mo
_symmetry_space_group_name_H-M   'P 1'
_cell_length_a   7.33670808
_cell_length_b   7.33670808
_cell_length_c   3.66835403
_cell_angle_alpha   90.00000000
_cell_angle_beta   90.00000000
_cell_angle_gamma   90.00000000
_symmetry_Int_Tables_number   1
_chemical_formula_structural   Mo
_chemical_formula_sum   Mo16
_cell_volume   197.45753985
_cell_formula_units_Z   16
loop_
 _symmetry_equiv_pos_site_id
 _symmetry_equiv_pos_as_xyz
  1  'x, y, z'
loop_
 _atom_site_type_symbol
 _atom_site_label
 _atom_site_symmetry_multiplicity
 _atom_site_fract_x
 _atom_site_fract_y
 _atom_site_fract_z
 _atom_site_occupancy
  Mo  Mo0  1  -0.12167100  7.35592000  3.68001000  1
  Mo  Mo1  1  1.89851000  1.65344000  3.83804000  1
  Mo  Mo2  1  1.85487000  0.04056820  1.89280000  1
  Mo  Mo3  1  7.42818000  1.86540000  1.71086000  1
  Mo  Mo4  1  3.69477000  -0.10787600  0.01021940  1
  Mo  Mo5  1  5.41982000  1.84490000  3.55937000  1
  Mo  Mo6  1  5.47006000  0.05695260  1.72597000  1
  Mo  Mo7  1  3.60021000  1.78268000  1.76284000  1
  Mo  Mo8  1  7.31571000  3.59390000  3.69549000  1
  Mo  Mo9  1  1.65648000  5.33352000  0.04484940  1
  Mo  Mo10  1  1.79817000  3.51791000  1.68972000  1
  Mo  Mo11  1  0.00932681  5.55627000  1.90390000  1
  Mo  Mo12  1  3.52302000  3.56584000  3.77537000  1
  Mo  Mo13  1  5.62167000  5.51645000  -0.17169100  1
  Mo  Mo14  1  5.60940000  3.82332000  1.86548000  1
  Mo  Mo15  1  3.44547000  5.48810000  1.79714000  1
