# generated using pymatgen
data_Mo
_symmetry_space_group_name_H-M   'P 1'
_cell_length_a   7.33670808
_cell_length_b   7.33670808
_cell_length_c   3.66835403
_cell_angle_alpha   90.00000000
_cell_angle_beta   90.00000000
_cell_angle_gamma   90.00000000
_symmetry_Int_Tables_number   1
_chemical_formula_structural   Mo
_chemical_formula_sum   Mo16
_cell_volume   197.45753985
_cell_formula_units_Z   16
loop_
 _symmetry_equiv_pos_site_id
 _symmetry_equiv_pos_as_xyz
  1  'x, y, z'
loop_
 _atom_site_type_symbol
 _atom_site_label
 _atom_site_symmetry_multiplicity
 _atom_site_fract_x
 _atom_site_fract_y
 _atom_site_fract_z
 _atom_site_occupancy
  Mo  Mo0  1  0.10380600  7.37879000  3.75558000  1
  Mo  Mo1  1  1.95500000  1.77965000  3.65487000  1
  Mo  Mo2  1  1.67850000  0.10241900  1.85898000  1
  Mo  Mo3  1  7.17497000  1.82919000  1.74102000  1
  Mo  Mo4  1  3.45361000  -0.00388295  0.09482650  1
  Mo  Mo5  1  5.35146000  1.74780000  3.66477000  1
  Mo  Mo6  1  5.62511000  -0.01031090  1.96027000  1
  Mo  Mo7  1  3.74167000  1.84252000  1.71595000  1
  Mo  Mo8  1  7.33569000  3.60539000  3.66460000  1
  Mo  Mo9  1  1.66296000  5.61821000  -0.12416600  1
  Mo  Mo10  1  1.80204000  3.63111000  1.60084000  1
  Mo  Mo11  1  0.13543200  5.41468000  1.91266000  1
  Mo  Mo12  1  3.77292000  3.54107000  3.51371000  1
  Mo  Mo13  1  5.45583000  5.42622000  0.15436300  1
  Mo  Mo14  1  5.50556000  3.74455000  1.81481000  1
  Mo  Mo15  1  3.46945000  5.23986000  1.79725000  1
