# generated using pymatgen
data_Mo
_symmetry_space_group_name_H-M   'P 1'
_cell_length_a   7.29789726
_cell_length_b   7.29789726
_cell_length_c   3.64894867
_cell_angle_alpha   90.00000000
_cell_angle_beta   90.00000000
_cell_angle_gamma   90.00000000
_symmetry_Int_Tables_number   1
_chemical_formula_structural   Mo
_chemical_formula_sum   Mo16
_cell_volume   194.34046797
_cell_formula_units_Z   16
loop_
 _symmetry_equiv_pos_site_id
 _symmetry_equiv_pos_as_xyz
  1  'x, y, z'
loop_
 _atom_site_type_symbol
 _atom_site_label
 _atom_site_symmetry_multiplicity
 _atom_site_fract_x
 _atom_site_fract_y
 _atom_site_fract_z
 _atom_site_occupancy
  Mo  Mo0  1  7.41523000  -0.06392870  -0.11041900  1
  Mo  Mo1  1  1.78088000  1.84568000  0.11845800  1
  Mo  Mo2  1  1.87126000  7.20761000  1.80485000  1
  Mo  Mo3  1  7.28923000  1.72928000  1.91659000  1
  Mo  Mo4  1  3.58453000  7.33842000  3.73005000  1
  Mo  Mo5  1  5.38387000  1.77516000  0.06981760  1
  Mo  Mo6  1  5.38930000  7.10108000  1.85022000  1
  Mo  Mo7  1  3.55830000  1.93112000  1.92789000  1
  Mo  Mo8  1  7.26325000  3.53700000  3.57404000  1
  Mo  Mo9  1  1.83656000  5.36047000  -0.08464590  1
  Mo  Mo10  1  1.81540000  3.68738000  1.73705000  1
  Mo  Mo11  1  7.35491000  5.56806000  1.77675000  1
  Mo  Mo12  1  3.63612000  3.73205000  0.00144172  1
  Mo  Mo13  1  5.38086000  5.57233000  3.61080000  1
  Mo  Mo14  1  5.62307000  3.71970000  1.86223000  1
  Mo  Mo15  1  3.63703000  5.48049000  1.67793000  1
