# generated using pymatgen
data_Mo
_symmetry_space_group_name_H-M   'P 1'
_cell_length_a   7.33670808
_cell_length_b   7.33670808
_cell_length_c   3.66835403
_cell_angle_alpha   90.00000000
_cell_angle_beta   90.00000000
_cell_angle_gamma   90.00000000
_symmetry_Int_Tables_number   1
_chemical_formula_structural   Mo
_chemical_formula_sum   Mo16
_cell_volume   197.45753985
_cell_formula_units_Z   16
loop_
 _symmetry_equiv_pos_site_id
 _symmetry_equiv_pos_as_xyz
  1  'x, y, z'
loop_
 _atom_site_type_symbol
 _atom_site_label
 _atom_site_symmetry_multiplicity
 _atom_site_fract_x
 _atom_site_fract_y
 _atom_site_fract_z
 _atom_site_occupancy
  Mo  Mo0  1  -0.08585180  7.27485000  3.65457000  1
  Mo  Mo1  1  1.68144000  1.68735000  3.88212000  1
  Mo  Mo2  1  1.61486000  -0.05273150  1.79443000  1
  Mo  Mo3  1  7.24014000  1.86602000  1.97346000  1
  Mo  Mo4  1  3.86327000  0.02168980  -0.24387900  1
  Mo  Mo5  1  5.47528000  2.02872000  3.78409000  1
  Mo  Mo6  1  5.46129000  0.03317300  1.60436000  1
  Mo  Mo7  1  3.85730000  1.95031000  1.92291000  1
  Mo  Mo8  1  7.52844000  3.54473000  3.78094000  1
  Mo  Mo9  1  1.66114000  5.53207000  -0.12632900  1
  Mo  Mo10  1  1.68921000  3.60156000  1.99747000  1
  Mo  Mo11  1  -0.00180106  5.40017000  1.78532000  1
  Mo  Mo12  1  3.59298000  3.61171000  3.54480000  1
  Mo  Mo13  1  5.52554000  5.35537000  -0.15733100  1
  Mo  Mo14  1  5.53715000  3.65128000  1.89671000  1
  Mo  Mo15  1  3.58361000  5.38104000  1.68671000  1
