# generated using pymatgen
data_Mo
_symmetry_space_group_name_H-M   'P 1'
_cell_length_a   7.33670808
_cell_length_b   7.33670808
_cell_length_c   3.66835403
_cell_angle_alpha   90.00000000
_cell_angle_beta   90.00000000
_cell_angle_gamma   90.00000000
_symmetry_Int_Tables_number   1
_chemical_formula_structural   Mo
_chemical_formula_sum   Mo16
_cell_volume   197.45753985
_cell_formula_units_Z   16
loop_
 _symmetry_equiv_pos_site_id
 _symmetry_equiv_pos_as_xyz
  1  'x, y, z'
loop_
 _atom_site_type_symbol
 _atom_site_label
 _atom_site_symmetry_multiplicity
 _atom_site_fract_x
 _atom_site_fract_y
 _atom_site_fract_z
 _atom_site_occupancy
  Mo  Mo0  1  0.07280960  7.23807000  3.63907000  1
  Mo  Mo1  1  1.70179000  1.93215000  3.64229000  1
  Mo  Mo2  1  1.88709000  -0.01083590  1.63984000  1
  Mo  Mo3  1  7.25195000  1.73215000  2.04787000  1
  Mo  Mo4  1  3.74745000  0.02997400  -0.16397300  1
  Mo  Mo5  1  5.56608000  1.62883000  3.65525000  1
  Mo  Mo6  1  5.48807000  0.05895800  1.81653000  1
  Mo  Mo7  1  3.74486000  1.87683000  1.76854000  1
  Mo  Mo8  1  7.26366000  3.54518000  3.95778000  1
  Mo  Mo9  1  1.81626000  5.23448000  0.00928564  1
  Mo  Mo10  1  1.71773000  3.55726000  1.72392000  1
  Mo  Mo11  1  0.02699770  5.41133000  1.80034000  1
  Mo  Mo12  1  3.63176000  3.72760000  3.59161000  1
  Mo  Mo13  1  5.51306000  5.55368000  0.01272250  1
  Mo  Mo14  1  5.36159000  3.78399000  2.03394000  1
  Mo  Mo15  1  3.43284000  5.58764000  1.60534000  1
