# generated using pymatgen
data_Mo
_symmetry_space_group_name_H-M   'P 1'
_cell_length_a   7.33670808
_cell_length_b   7.33670808
_cell_length_c   3.66835403
_cell_angle_alpha   90.00000000
_cell_angle_beta   90.00000000
_cell_angle_gamma   90.00000000
_symmetry_Int_Tables_number   1
_chemical_formula_structural   Mo
_chemical_formula_sum   Mo16
_cell_volume   197.45753985
_cell_formula_units_Z   16
loop_
 _symmetry_equiv_pos_site_id
 _symmetry_equiv_pos_as_xyz
  1  'x, y, z'
loop_
 _atom_site_type_symbol
 _atom_site_label
 _atom_site_symmetry_multiplicity
 _atom_site_fract_x
 _atom_site_fract_y
 _atom_site_fract_z
 _atom_site_occupancy
  Mo  Mo0  1  -0.06204450  7.21582000  3.60263000  1
  Mo  Mo1  1  1.82809000  1.91453000  3.67657000  1
  Mo  Mo2  1  1.80865000  0.04414700  1.95297000  1
  Mo  Mo3  1  7.24286000  2.07013000  1.83456000  1
  Mo  Mo4  1  3.54365000  -0.10670400  -0.07122020  1
  Mo  Mo5  1  5.67359000  1.52234000  3.63575000  1
  Mo  Mo6  1  5.39286000  -0.14347400  1.76401000  1
  Mo  Mo7  1  3.75706000  1.81982000  1.86676000  1
  Mo  Mo8  1  7.52275000  3.55663000  3.56072000  1
  Mo  Mo9  1  1.74000000  5.62625000  0.06332190  1
  Mo  Mo10  1  1.85554000  3.61765000  1.76625000  1
  Mo  Mo11  1  -0.08893110  5.32826000  1.68542000  1
  Mo  Mo12  1  3.63240000  3.70201000  3.73945000  1
  Mo  Mo13  1  5.46830000  5.57653000  -0.01416130  1
  Mo  Mo14  1  5.47123000  3.70505000  1.78578000  1
  Mo  Mo15  1  3.43800000  5.43830000  1.93154000  1
