# generated using pymatgen
data_Mo
_symmetry_space_group_name_H-M   'P 1'
_cell_length_a   7.33670808
_cell_length_b   7.33670808
_cell_length_c   3.66835403
_cell_angle_alpha   90.00000000
_cell_angle_beta   90.00000000
_cell_angle_gamma   90.00000000
_symmetry_Int_Tables_number   1
_chemical_formula_structural   Mo
_chemical_formula_sum   Mo16
_cell_volume   197.45753985
_cell_formula_units_Z   16
loop_
 _symmetry_equiv_pos_site_id
 _symmetry_equiv_pos_as_xyz
  1  'x, y, z'
loop_
 _atom_site_type_symbol
 _atom_site_label
 _atom_site_symmetry_multiplicity
 _atom_site_fract_x
 _atom_site_fract_y
 _atom_site_fract_z
 _atom_site_occupancy
  Mo  Mo0  1  -0.03354760  7.30315000  3.66389000  1
  Mo  Mo1  1  1.89432000  1.79638000  3.85538000  1
  Mo  Mo2  1  2.00867000  0.09689130  1.78865000  1
  Mo  Mo3  1  7.27376000  1.67903000  1.85414000  1
  Mo  Mo4  1  3.62377000  -0.06181290  -0.02905450  1
  Mo  Mo5  1  5.28228000  1.67472000  3.62311000  1
  Mo  Mo6  1  5.34298000  -0.01181610  1.93213000  1
  Mo  Mo7  1  3.55983000  1.71248000  1.83182000  1
  Mo  Mo8  1  7.29831000  3.66011000  3.53861000  1
  Mo  Mo9  1  1.86124000  5.67811000  -0.02820220  1
  Mo  Mo10  1  1.69261000  3.65555000  1.91674000  1
  Mo  Mo11  1  -0.15645300  5.63914000  1.87896000  1
  Mo  Mo12  1  3.55076000  3.75775000  3.76022000  1
  Mo  Mo13  1  5.45656000  5.33563000  -0.19017300  1
  Mo  Mo14  1  5.79504000  3.53811000  1.62149000  1
  Mo  Mo15  1  3.77385000  5.43387000  1.76263000  1
