# generated using pymatgen
data_Mo
_symmetry_space_group_name_H-M   'P 1'
_cell_length_a   7.33670808
_cell_length_b   7.33670808
_cell_length_c   3.66835403
_cell_angle_alpha   90.00000000
_cell_angle_beta   90.00000000
_cell_angle_gamma   90.00000000
_symmetry_Int_Tables_number   1
_chemical_formula_structural   Mo
_chemical_formula_sum   Mo16
_cell_volume   197.45753985
_cell_formula_units_Z   16
loop_
 _symmetry_equiv_pos_site_id
 _symmetry_equiv_pos_as_xyz
  1  'x, y, z'
loop_
 _atom_site_type_symbol
 _atom_site_label
 _atom_site_symmetry_multiplicity
 _atom_site_fract_x
 _atom_site_fract_y
 _atom_site_fract_z
 _atom_site_occupancy
  Mo  Mo0  1  -0.20951800  7.32774000  3.67604000  1
  Mo  Mo1  1  1.74372000  1.73444000  3.49872000  1
  Mo  Mo2  1  1.79852000  -0.02911870  1.72969000  1
  Mo  Mo3  1  7.13469000  1.83161000  1.83271000  1
  Mo  Mo4  1  3.67387000  0.16404900  -0.07623120  1
  Mo  Mo5  1  5.53986000  1.90302000  3.63278000  1
  Mo  Mo6  1  5.48356000  -0.02752610  1.79083000  1
  Mo  Mo7  1  3.79359000  1.86381000  1.74709000  1
  Mo  Mo8  1  7.42234000  3.62533000  3.64269000  1
  Mo  Mo9  1  1.63913000  5.48238000  0.04959490  1
  Mo  Mo10  1  1.77235000  3.31851000  1.73806000  1
  Mo  Mo11  1  0.23334200  5.29177000  1.82883000  1
  Mo  Mo12  1  3.63118000  3.74234000  3.66169000  1
  Mo  Mo13  1  5.48270000  5.34067000  0.25174900  1
  Mo  Mo14  1  5.53515000  3.67437000  2.03229000  1
  Mo  Mo15  1  3.54952000  5.64390000  1.74381000  1
