# generated using pymatgen
data_Mo
_symmetry_space_group_name_H-M   'P 1'
_cell_length_a   7.33670808
_cell_length_b   7.33670808
_cell_length_c   3.66835403
_cell_angle_alpha   90.00000000
_cell_angle_beta   90.00000000
_cell_angle_gamma   90.00000000
_symmetry_Int_Tables_number   1
_chemical_formula_structural   Mo
_chemical_formula_sum   Mo16
_cell_volume   197.45753985
_cell_formula_units_Z   16
loop_
 _symmetry_equiv_pos_site_id
 _symmetry_equiv_pos_as_xyz
  1  'x, y, z'
loop_
 _atom_site_type_symbol
 _atom_site_label
 _atom_site_symmetry_multiplicity
 _atom_site_fract_x
 _atom_site_fract_y
 _atom_site_fract_z
 _atom_site_occupancy
  Mo  Mo0  1  0.00974345  7.13338000  3.55513000  1
  Mo  Mo1  1  1.72937000  1.90452000  3.65535000  1
  Mo  Mo2  1  1.91871000  -0.04960590  1.55538000  1
  Mo  Mo3  1  7.35956000  1.66393000  1.90598000  1
  Mo  Mo4  1  3.51765000  -0.04164000  -0.22318600  1
  Mo  Mo5  1  5.56577000  1.89310000  3.64195000  1
  Mo  Mo6  1  5.61030000  -0.05962820  1.71229000  1
  Mo  Mo7  1  3.69687000  1.80653000  1.57574000  1
  Mo  Mo8  1  7.32617000  3.77272000  3.80821000  1
  Mo  Mo9  1  1.86937000  5.50795000  0.00550274  1
  Mo  Mo10  1  1.68131000  3.51329000  1.78029000  1
  Mo  Mo11  1  0.12082000  5.37095000  1.92375000  1
  Mo  Mo12  1  3.70953000  3.68197000  3.93388000  1
  Mo  Mo13  1  5.15925000  5.50851000  0.10234900  1
  Mo  Mo14  1  5.53092000  3.74475000  2.02306000  1
  Mo  Mo15  1  3.41865000  5.53656000  1.82469000  1
