# generated using pymatgen
data_Mo
_symmetry_space_group_name_H-M   'P 1'
_cell_length_a   7.33670808
_cell_length_b   7.33670808
_cell_length_c   3.66835403
_cell_angle_alpha   90.00000000
_cell_angle_beta   90.00000000
_cell_angle_gamma   90.00000000
_symmetry_Int_Tables_number   1
_chemical_formula_structural   Mo
_chemical_formula_sum   Mo16
_cell_volume   197.45753985
_cell_formula_units_Z   16
loop_
 _symmetry_equiv_pos_site_id
 _symmetry_equiv_pos_as_xyz
  1  'x, y, z'
loop_
 _atom_site_type_symbol
 _atom_site_label
 _atom_site_symmetry_multiplicity
 _atom_site_fract_x
 _atom_site_fract_y
 _atom_site_fract_z
 _atom_site_occupancy
  Mo  Mo0  1  -0.18718100  7.37250000  3.61840000  1
  Mo  Mo1  1  1.89631000  1.73035000  3.67546000  1
  Mo  Mo2  1  1.78674000  -0.11887100  1.94623000  1
  Mo  Mo3  1  7.49165000  1.86516000  1.99514000  1
  Mo  Mo4  1  3.44180000  -0.05153160  0.16481800  1
  Mo  Mo5  1  5.46744000  1.73178000  3.52347000  1
  Mo  Mo6  1  5.32326000  0.08647430  1.69847000  1
  Mo  Mo7  1  3.67950000  1.85963000  1.91739000  1
  Mo  Mo8  1  7.46351000  3.58593000  3.74103000  1
  Mo  Mo9  1  1.70643000  5.61480000  0.11347400  1
  Mo  Mo10  1  1.81902000  3.60359000  1.79530000  1
  Mo  Mo11  1  -0.10449600  5.49189000  1.97352000  1
  Mo  Mo12  1  3.62116000  3.80214000  3.61087000  1
  Mo  Mo13  1  5.51012000  5.37458000  -0.12863000  1
  Mo  Mo14  1  5.58362000  3.60893000  1.54196000  1
  Mo  Mo15  1  3.72512000  5.32993000  1.59347000  1
