# generated using pymatgen
data_Mo
_symmetry_space_group_name_H-M   'P 1'
_cell_length_a   7.33670808
_cell_length_b   7.33670808
_cell_length_c   3.66835403
_cell_angle_alpha   90.00000000
_cell_angle_beta   90.00000000
_cell_angle_gamma   90.00000000
_symmetry_Int_Tables_number   1
_chemical_formula_structural   Mo
_chemical_formula_sum   Mo16
_cell_volume   197.45753985
_cell_formula_units_Z   16
loop_
 _symmetry_equiv_pos_site_id
 _symmetry_equiv_pos_as_xyz
  1  'x, y, z'
loop_
 _atom_site_type_symbol
 _atom_site_label
 _atom_site_symmetry_multiplicity
 _atom_site_fract_x
 _atom_site_fract_y
 _atom_site_fract_z
 _atom_site_occupancy
  Mo  Mo0  1  0.00713079  7.48926000  3.49637000  1
  Mo  Mo1  1  1.73832000  1.99655000  3.80094000  1
  Mo  Mo2  1  1.84813000  0.26538500  1.87301000  1
  Mo  Mo3  1  7.11689000  1.76714000  1.88534000  1
  Mo  Mo4  1  3.42805000  -0.33684300  0.05263920  1
  Mo  Mo5  1  5.45888000  1.84026000  3.87468000  1
  Mo  Mo6  1  5.41508000  -0.20484100  1.70058000  1
  Mo  Mo7  1  3.79001000  1.77632000  1.91875000  1
  Mo  Mo8  1  7.24639000  3.67540000  3.62218000  1
  Mo  Mo9  1  1.62149000  5.41417000  -0.02841750  1
  Mo  Mo10  1  1.83134000  3.56919000  1.81126000  1
  Mo  Mo11  1  0.07863630  5.48879000  1.65202000  1
  Mo  Mo12  1  3.68944000  3.58232000  3.64504000  1
  Mo  Mo13  1  5.49596000  5.52264000  -0.14335700  1
  Mo  Mo14  1  5.71393000  3.70509000  1.71598000  1
  Mo  Mo15  1  3.74431000  5.33647000  1.90332000  1
