# generated using pymatgen
data_Mo
_symmetry_space_group_name_H-M   'P 1'
_cell_length_a   7.33670808
_cell_length_b   7.33670808
_cell_length_c   3.66835403
_cell_angle_alpha   90.00000000
_cell_angle_beta   90.00000000
_cell_angle_gamma   90.00000000
_symmetry_Int_Tables_number   1
_chemical_formula_structural   Mo
_chemical_formula_sum   Mo16
_cell_volume   197.45753985
_cell_formula_units_Z   16
loop_
 _symmetry_equiv_pos_site_id
 _symmetry_equiv_pos_as_xyz
  1  'x, y, z'
loop_
 _atom_site_type_symbol
 _atom_site_label
 _atom_site_symmetry_multiplicity
 _atom_site_fract_x
 _atom_site_fract_y
 _atom_site_fract_z
 _atom_site_occupancy
  Mo  Mo0  1  0.20722000  7.33815000  3.82525000  1
  Mo  Mo1  1  1.86216000  1.84441000  3.77380000  1
  Mo  Mo2  1  1.74499000  0.05339040  2.00266000  1
  Mo  Mo3  1  7.17731000  1.75758000  1.86555000  1
  Mo  Mo4  1  3.51508000  -0.15341600  -0.05807270  1
  Mo  Mo5  1  5.68175000  1.78079000  3.66512000  1
  Mo  Mo6  1  5.44012000  -0.04969900  1.84463000  1
  Mo  Mo7  1  3.75745000  1.70007000  1.76133000  1
  Mo  Mo8  1  7.35412000  3.51853000  3.49384000  1
  Mo  Mo9  1  1.71778000  5.44593000  0.00251633  1
  Mo  Mo10  1  1.70898000  3.69806000  1.80911000  1
  Mo  Mo11  1  -0.13696700  5.68071000  1.92049000  1
  Mo  Mo12  1  3.59219000  3.58522000  3.53159000  1
  Mo  Mo13  1  5.46355000  5.55706000  -0.09117550  1
  Mo  Mo14  1  5.47921000  3.66839000  1.66914000  1
  Mo  Mo15  1  3.65908000  5.46212000  1.76457000  1
