# generated using pymatgen
data_Mo
_symmetry_space_group_name_H-M   'P 1'
_cell_length_a   7.29789726
_cell_length_b   7.29789726
_cell_length_c   3.64894867
_cell_angle_alpha   90.00000000
_cell_angle_beta   90.00000000
_cell_angle_gamma   90.00000000
_symmetry_Int_Tables_number   1
_chemical_formula_structural   Mo
_chemical_formula_sum   Mo16
_cell_volume   194.34046797
_cell_formula_units_Z   16
loop_
 _symmetry_equiv_pos_site_id
 _symmetry_equiv_pos_as_xyz
  1  'x, y, z'
loop_
 _atom_site_type_symbol
 _atom_site_label
 _atom_site_symmetry_multiplicity
 _atom_site_fract_x
 _atom_site_fract_y
 _atom_site_fract_z
 _atom_site_occupancy
  Mo  Mo0  1  7.26957000  0.20761700  -0.04857110  1
  Mo  Mo1  1  1.84506000  1.84602000  0.13407500  1
  Mo  Mo2  1  1.82320000  7.35347000  1.78524000  1
  Mo  Mo3  1  7.36761000  1.93639000  1.79160000  1
  Mo  Mo4  1  3.69660000  7.18035000  3.62558000  1
  Mo  Mo5  1  5.43260000  1.81728000  -0.10067700  1
  Mo  Mo6  1  5.52955000  7.17716000  1.59898000  1
  Mo  Mo7  1  3.58251000  1.79042000  2.00443000  1
  Mo  Mo8  1  7.11317000  3.51922000  3.67546000  1
  Mo  Mo9  1  1.72110000  5.47574000  0.05845270  1
  Mo  Mo10  1  1.84776000  3.67727000  1.83674000  1
  Mo  Mo11  1  7.28537000  5.48691000  1.84761000  1
  Mo  Mo12  1  3.71990000  3.60626000  0.08800740  1
  Mo  Mo13  1  5.59368000  5.35524000  3.60511000  1
  Mo  Mo14  1  5.33365000  3.52334000  1.82607000  1
  Mo  Mo15  1  3.65845000  5.56923000  1.73496000  1
