# generated using pymatgen
data_Mo
_symmetry_space_group_name_H-M   'P 1'
_cell_length_a   7.33670808
_cell_length_b   7.33670808
_cell_length_c   3.66835403
_cell_angle_alpha   90.00000000
_cell_angle_beta   90.00000000
_cell_angle_gamma   90.00000000
_symmetry_Int_Tables_number   1
_chemical_formula_structural   Mo
_chemical_formula_sum   Mo16
_cell_volume   197.45753985
_cell_formula_units_Z   16
loop_
 _symmetry_equiv_pos_site_id
 _symmetry_equiv_pos_as_xyz
  1  'x, y, z'
loop_
 _atom_site_type_symbol
 _atom_site_label
 _atom_site_symmetry_multiplicity
 _atom_site_fract_x
 _atom_site_fract_y
 _atom_site_fract_z
 _atom_site_occupancy
  Mo  Mo0  1  0.12298300  7.29077000  3.61305000  1
  Mo  Mo1  1  1.90882000  1.95814000  3.53332000  1
  Mo  Mo2  1  1.57593000  0.13038400  1.75375000  1
  Mo  Mo3  1  7.32222000  1.88568000  1.69545000  1
  Mo  Mo4  1  3.39272000  -0.14051200  -0.03451780  1
  Mo  Mo5  1  5.55441000  1.83126000  3.69435000  1
  Mo  Mo6  1  5.11910000  -0.09026500  1.89585000  1
  Mo  Mo7  1  3.69347000  1.79810000  1.84911000  1
  Mo  Mo8  1  7.19589000  3.63605000  3.50192000  1
  Mo  Mo9  1  1.84234000  5.36543000  -0.00257525  1
  Mo  Mo10  1  1.91588000  3.49824000  1.80354000  1
  Mo  Mo11  1  0.03401250  5.54948000  1.92815000  1
  Mo  Mo12  1  3.79982000  3.68036000  3.75648000  1
  Mo  Mo13  1  5.63665000  5.52176000  0.06670350  1
  Mo  Mo14  1  5.51977000  3.68793000  1.80563000  1
  Mo  Mo15  1  3.58999000  5.28449000  1.92016000  1
