# generated using pymatgen
data_Mo
_symmetry_space_group_name_H-M   'P 1'
_cell_length_a   7.33670808
_cell_length_b   7.33670808
_cell_length_c   3.66835403
_cell_angle_alpha   90.00000000
_cell_angle_beta   90.00000000
_cell_angle_gamma   90.00000000
_symmetry_Int_Tables_number   1
_chemical_formula_structural   Mo
_chemical_formula_sum   Mo16
_cell_volume   197.45753985
_cell_formula_units_Z   16
loop_
 _symmetry_equiv_pos_site_id
 _symmetry_equiv_pos_as_xyz
  1  'x, y, z'
loop_
 _atom_site_type_symbol
 _atom_site_label
 _atom_site_symmetry_multiplicity
 _atom_site_fract_x
 _atom_site_fract_y
 _atom_site_fract_z
 _atom_site_occupancy
  Mo  Mo0  1  -0.12927000  7.54763000  3.61697000  1
  Mo  Mo1  1  1.91876000  1.61911000  3.54631000  1
  Mo  Mo2  1  1.87709000  -0.09578230  1.92591000  1
  Mo  Mo3  1  7.41504000  1.71711000  1.77729000  1
  Mo  Mo4  1  3.67864000  0.09999480  -0.01330420  1
  Mo  Mo5  1  5.36733000  1.84810000  3.58305000  1
  Mo  Mo6  1  5.41897000  -0.09085110  1.78542000  1
  Mo  Mo7  1  3.59343000  1.88203000  1.65224000  1
  Mo  Mo8  1  7.30267000  3.51812000  3.77690000  1
  Mo  Mo9  1  1.83761000  5.56039000  0.14808800  1
  Mo  Mo10  1  1.64067000  3.64914000  2.06057000  1
  Mo  Mo11  1  -0.08495770  5.51295000  1.71186000  1
  Mo  Mo12  1  3.70761000  3.38678000  3.56083000  1
  Mo  Mo13  1  5.58448000  5.51968000  -0.05682880  1
  Mo  Mo14  1  5.43721000  3.71751000  1.84047000  1
  Mo  Mo15  1  3.65874000  5.49538000  1.86458000  1
