# generated using pymatgen
data_Mo
_symmetry_space_group_name_H-M   'P 1'
_cell_length_a   7.33670808
_cell_length_b   7.33670808
_cell_length_c   3.66835403
_cell_angle_alpha   90.00000000
_cell_angle_beta   90.00000000
_cell_angle_gamma   90.00000000
_symmetry_Int_Tables_number   1
_chemical_formula_structural   Mo
_chemical_formula_sum   Mo16
_cell_volume   197.45753985
_cell_formula_units_Z   16
loop_
 _symmetry_equiv_pos_site_id
 _symmetry_equiv_pos_as_xyz
  1  'x, y, z'
loop_
 _atom_site_type_symbol
 _atom_site_label
 _atom_site_symmetry_multiplicity
 _atom_site_fract_x
 _atom_site_fract_y
 _atom_site_fract_z
 _atom_site_occupancy
  Mo  Mo0  1  -0.12841200  7.41964000  3.70528000  1
  Mo  Mo1  1  1.70634000  1.70602000  3.78401000  1
  Mo  Mo2  1  1.85373000  -0.03180930  1.89974000  1
  Mo  Mo3  1  7.28664000  1.68897000  1.87793000  1
  Mo  Mo4  1  3.65223000  -0.20481200  0.02188250  1
  Mo  Mo5  1  5.36003000  1.97444000  3.60926000  1
  Mo  Mo6  1  5.32214000  0.06279410  1.88786000  1
  Mo  Mo7  1  3.56569000  1.79801000  1.88705000  1
  Mo  Mo8  1  7.38609000  3.73087000  3.70345000  1
  Mo  Mo9  1  1.98229000  5.56762000  0.02913420  1
  Mo  Mo10  1  1.89312000  3.53922000  1.62917000  1
  Mo  Mo11  1  -0.06486870  5.58784000  1.65304000  1
  Mo  Mo12  1  3.53166000  3.60323000  3.77875000  1
  Mo  Mo13  1  5.56557000  5.47666000  -0.27846300  1
  Mo  Mo14  1  5.68851000  3.71064000  1.66982000  1
  Mo  Mo15  1  3.62324000  5.25795000  1.92244000  1
