# generated using pymatgen
data_Mo
_symmetry_space_group_name_H-M   'P 1'
_cell_length_a   7.33670808
_cell_length_b   7.33670808
_cell_length_c   3.66835403
_cell_angle_alpha   90.00000000
_cell_angle_beta   90.00000000
_cell_angle_gamma   90.00000000
_symmetry_Int_Tables_number   1
_chemical_formula_structural   Mo
_chemical_formula_sum   Mo16
_cell_volume   197.45753985
_cell_formula_units_Z   16
loop_
 _symmetry_equiv_pos_site_id
 _symmetry_equiv_pos_as_xyz
  1  'x, y, z'
loop_
 _atom_site_type_symbol
 _atom_site_label
 _atom_site_symmetry_multiplicity
 _atom_site_fract_x
 _atom_site_fract_y
 _atom_site_fract_z
 _atom_site_occupancy
  Mo  Mo0  1  -0.22462500  7.34827000  3.55360000  1
  Mo  Mo1  1  1.77769000  1.62106000  3.77772000  1
  Mo  Mo2  1  1.85406000  0.16883600  1.84729000  1
  Mo  Mo3  1  7.32867000  1.76728000  1.74265000  1
  Mo  Mo4  1  3.80879000  0.15939500  -0.08498430  1
  Mo  Mo5  1  5.55155000  1.71921000  3.54818000  1
  Mo  Mo6  1  5.29708000  -0.15957200  1.69147000  1
  Mo  Mo7  1  3.82866000  1.78639000  1.90662000  1
  Mo  Mo8  1  7.36015000  3.55235000  3.63189000  1
  Mo  Mo9  1  1.65089000  5.50218000  0.01053960  1
  Mo  Mo10  1  1.91241000  3.47948000  1.87744000  1
  Mo  Mo11  1  0.00453447  5.67200000  1.71785000  1
  Mo  Mo12  1  3.61926000  3.53336000  3.73339000  1
  Mo  Mo13  1  5.39389000  5.47970000  -0.11198000  1
  Mo  Mo14  1  5.51974000  3.76613000  2.04074000  1
  Mo  Mo15  1  3.54125000  5.49122000  1.89794000  1
