# generated using pymatgen
data_Mo
_symmetry_space_group_name_H-M   'P 1'
_cell_length_a   7.33670808
_cell_length_b   7.33670808
_cell_length_c   3.66835403
_cell_angle_alpha   90.00000000
_cell_angle_beta   90.00000000
_cell_angle_gamma   90.00000000
_symmetry_Int_Tables_number   1
_chemical_formula_structural   Mo
_chemical_formula_sum   Mo16
_cell_volume   197.45753985
_cell_formula_units_Z   16
loop_
 _symmetry_equiv_pos_site_id
 _symmetry_equiv_pos_as_xyz
  1  'x, y, z'
loop_
 _atom_site_type_symbol
 _atom_site_label
 _atom_site_symmetry_multiplicity
 _atom_site_fract_x
 _atom_site_fract_y
 _atom_site_fract_z
 _atom_site_occupancy
  Mo  Mo0  1  -0.13667800  7.22165000  3.87632000  1
  Mo  Mo1  1  1.92371000  1.62523000  3.44496000  1
  Mo  Mo2  1  1.77866000  -0.06979510  1.97555000  1
  Mo  Mo3  1  7.31964000  1.89802000  1.82761000  1
  Mo  Mo4  1  3.62130000  0.06423250  -0.07154400  1
  Mo  Mo5  1  5.42429000  1.95307000  3.62964000  1
  Mo  Mo6  1  5.21426000  -0.19435300  1.92750000  1
  Mo  Mo7  1  3.85316000  1.94562000  1.67584000  1
  Mo  Mo8  1  7.42531000  3.73157000  3.73818000  1
  Mo  Mo9  1  1.90247000  5.40963000  -0.12772100  1
  Mo  Mo10  1  1.97467000  3.49537000  1.64107000  1
  Mo  Mo11  1  -0.02551020  5.42758000  2.13042000  1
  Mo  Mo12  1  3.57169000  3.58874000  3.49409000  1
  Mo  Mo13  1  5.38622000  5.45452000  0.05860470  1
  Mo  Mo14  1  5.48232000  3.88841000  1.64768000  1
  Mo  Mo15  1  3.50849000  5.44779000  1.91218000  1
