# generated using pymatgen
data_Mo
_symmetry_space_group_name_H-M   'P 1'
_cell_length_a   7.33670808
_cell_length_b   7.33670808
_cell_length_c   3.66835403
_cell_angle_alpha   90.00000000
_cell_angle_beta   90.00000000
_cell_angle_gamma   90.00000000
_symmetry_Int_Tables_number   1
_chemical_formula_structural   Mo
_chemical_formula_sum   Mo16
_cell_volume   197.45753985
_cell_formula_units_Z   16
loop_
 _symmetry_equiv_pos_site_id
 _symmetry_equiv_pos_as_xyz
  1  'x, y, z'
loop_
 _atom_site_type_symbol
 _atom_site_label
 _atom_site_symmetry_multiplicity
 _atom_site_fract_x
 _atom_site_fract_y
 _atom_site_fract_z
 _atom_site_occupancy
  Mo  Mo0  1  -0.11172900  7.40150000  3.84080000  1
  Mo  Mo1  1  1.69919000  1.71389000  3.75014000  1
  Mo  Mo2  1  1.67249000  -0.17475200  1.78729000  1
  Mo  Mo3  1  7.36364000  1.85805000  1.77999000  1
  Mo  Mo4  1  3.55425000  -0.00557705  -0.26296300  1
  Mo  Mo5  1  5.47515000  1.82076000  3.65239000  1
  Mo  Mo6  1  5.40242000  0.07737110  1.88177000  1
  Mo  Mo7  1  3.74612000  1.67110000  1.72138000  1
  Mo  Mo8  1  7.49518000  3.66776000  3.72332000  1
  Mo  Mo9  1  1.72416000  5.48648000  0.04887490  1
  Mo  Mo10  1  2.12219000  3.64432000  1.91964000  1
  Mo  Mo11  1  -0.28692200  5.51302000  1.80519000  1
  Mo  Mo12  1  3.70761000  3.52255000  3.71553000  1
  Mo  Mo13  1  5.52899000  5.49977000  -0.12995400  1
  Mo  Mo14  1  5.55358000  3.60733000  1.79160000  1
  Mo  Mo15  1  3.57767000  5.58371000  1.75535000  1
