# generated using pymatgen
data_Mo
_symmetry_space_group_name_H-M   'P 1'
_cell_length_a   7.33670808
_cell_length_b   7.33670808
_cell_length_c   3.66835403
_cell_angle_alpha   90.00000000
_cell_angle_beta   90.00000000
_cell_angle_gamma   90.00000000
_symmetry_Int_Tables_number   1
_chemical_formula_structural   Mo
_chemical_formula_sum   Mo16
_cell_volume   197.45753985
_cell_formula_units_Z   16
loop_
 _symmetry_equiv_pos_site_id
 _symmetry_equiv_pos_as_xyz
  1  'x, y, z'
loop_
 _atom_site_type_symbol
 _atom_site_label
 _atom_site_symmetry_multiplicity
 _atom_site_fract_x
 _atom_site_fract_y
 _atom_site_fract_z
 _atom_site_occupancy
  Mo  Mo0  1  0.08682970  7.32647000  3.46775000  1
  Mo  Mo1  1  1.92285000  1.80924000  3.81672000  1
  Mo  Mo2  1  1.83108000  0.05671380  1.83658000  1
  Mo  Mo3  1  7.19612000  1.86796000  1.92910000  1
  Mo  Mo4  1  3.70545000  -0.05069280  -0.09346950  1
  Mo  Mo5  1  5.31175000  1.74852000  3.61862000  1
  Mo  Mo6  1  5.51703000  -0.16888400  1.57289000  1
  Mo  Mo7  1  3.65552000  1.85931000  1.82614000  1
  Mo  Mo8  1  7.34168000  3.60827000  3.75630000  1
  Mo  Mo9  1  1.83511000  5.53140000  0.09417310  1
  Mo  Mo10  1  1.79607000  3.41378000  2.08309000  1
  Mo  Mo11  1  0.09226210  5.42600000  1.82196000  1
  Mo  Mo12  1  3.36872000  3.69179000  3.75360000  1
  Mo  Mo13  1  5.41198000  5.55013000  -0.20731800  1
  Mo  Mo14  1  5.60370000  3.77680000  1.92031000  1
  Mo  Mo15  1  3.54786000  5.44047000  1.58390000  1
