# generated using pymatgen
data_Mo
_symmetry_space_group_name_H-M   'P 1'
_cell_length_a   7.33670808
_cell_length_b   7.33670808
_cell_length_c   3.66835403
_cell_angle_alpha   90.00000000
_cell_angle_beta   90.00000000
_cell_angle_gamma   90.00000000
_symmetry_Int_Tables_number   1
_chemical_formula_structural   Mo
_chemical_formula_sum   Mo16
_cell_volume   197.45753985
_cell_formula_units_Z   16
loop_
 _symmetry_equiv_pos_site_id
 _symmetry_equiv_pos_as_xyz
  1  'x, y, z'
loop_
 _atom_site_type_symbol
 _atom_site_label
 _atom_site_symmetry_multiplicity
 _atom_site_fract_x
 _atom_site_fract_y
 _atom_site_fract_z
 _atom_site_occupancy
  Mo  Mo0  1  -0.13136700  7.47127000  3.75857000  1
  Mo  Mo1  1  1.80552000  1.85624000  3.74165000  1
  Mo  Mo2  1  1.96160000  0.04001170  1.85589000  1
  Mo  Mo3  1  7.35026000  1.83622000  1.83268000  1
  Mo  Mo4  1  3.67764000  -0.28748900  -0.22374600  1
  Mo  Mo5  1  5.39171000  1.91885000  3.68477000  1
  Mo  Mo6  1  5.32641000  -0.05418090  1.64295000  1
  Mo  Mo7  1  3.87678000  1.75881000  1.70245000  1
  Mo  Mo8  1  7.36159000  3.54570000  3.74377000  1
  Mo  Mo9  1  1.75171000  5.53373000  0.00035427  1
  Mo  Mo10  1  1.75261000  3.44458000  2.04526000  1
  Mo  Mo11  1  0.13698500  5.57890000  1.83137000  1
  Mo  Mo12  1  3.31010000  3.59621000  3.69580000  1
  Mo  Mo13  1  5.69507000  5.44385000  -0.08255960  1
  Mo  Mo14  1  5.40844000  3.89723000  1.93497000  1
  Mo  Mo15  1  3.54894000  5.30736000  1.61619000  1
