# generated using pymatgen
data_Mo
_symmetry_space_group_name_H-M   'P 1'
_cell_length_a   7.33670808
_cell_length_b   7.33670808
_cell_length_c   3.66835403
_cell_angle_alpha   90.00000000
_cell_angle_beta   90.00000000
_cell_angle_gamma   90.00000000
_symmetry_Int_Tables_number   1
_chemical_formula_structural   Mo
_chemical_formula_sum   Mo16
_cell_volume   197.45753985
_cell_formula_units_Z   16
loop_
 _symmetry_equiv_pos_site_id
 _symmetry_equiv_pos_as_xyz
  1  'x, y, z'
loop_
 _atom_site_type_symbol
 _atom_site_label
 _atom_site_symmetry_multiplicity
 _atom_site_fract_x
 _atom_site_fract_y
 _atom_site_fract_z
 _atom_site_occupancy
  Mo  Mo0  1  0.02340440  7.56498000  3.68470000  1
  Mo  Mo1  1  1.83535000  1.70185000  3.81085000  1
  Mo  Mo2  1  1.83535000  0.01969060  1.79436000  1
  Mo  Mo3  1  7.40395000  1.89506000  1.73486000  1
  Mo  Mo4  1  3.76880000  -0.17413600  -0.14798900  1
  Mo  Mo5  1  5.23448000  1.78089000  3.74688000  1
  Mo  Mo6  1  5.52075000  -0.08903660  1.79423000  1
  Mo  Mo7  1  3.67680000  1.82631000  1.83653000  1
  Mo  Mo8  1  7.34074000  3.57368000  3.62408000  1
  Mo  Mo9  1  1.77322000  5.57556000  -0.11113500  1
  Mo  Mo10  1  1.79813000  3.56589000  1.92327000  1
  Mo  Mo11  1  -0.09777470  5.51575000  1.72448000  1
  Mo  Mo12  1  3.49989000  3.74580000  3.90462000  1
  Mo  Mo13  1  5.66619000  5.36479000  -0.12093300  1
  Mo  Mo14  1  5.32116000  3.55851000  1.81347000  1
  Mo  Mo15  1  3.62356000  5.46171000  1.76808000  1
