# generated using pymatgen
data_Mo
_symmetry_space_group_name_H-M   'P 1'
_cell_length_a   7.29789726
_cell_length_b   7.29789726
_cell_length_c   3.64894867
_cell_angle_alpha   90.00000000
_cell_angle_beta   90.00000000
_cell_angle_gamma   90.00000000
_symmetry_Int_Tables_number   1
_chemical_formula_structural   Mo
_chemical_formula_sum   Mo16
_cell_volume   194.34046797
_cell_formula_units_Z   16
loop_
 _symmetry_equiv_pos_site_id
 _symmetry_equiv_pos_as_xyz
  1  'x, y, z'
loop_
 _atom_site_type_symbol
 _atom_site_label
 _atom_site_symmetry_multiplicity
 _atom_site_fract_x
 _atom_site_fract_y
 _atom_site_fract_z
 _atom_site_occupancy
  Mo  Mo0  1  7.24128000  0.02487110  -0.00069832  1
  Mo  Mo1  1  2.00029000  1.68728000  0.05923500  1
  Mo  Mo2  1  1.69428000  7.06571000  1.78492000  1
  Mo  Mo3  1  7.34725000  1.66485000  1.82174000  1
  Mo  Mo4  1  3.56095000  7.27561000  3.53442000  1
  Mo  Mo5  1  5.39256000  1.98132000  -0.10465100  1
  Mo  Mo6  1  5.39826000  7.37823000  1.82500000  1
  Mo  Mo7  1  3.56563000  1.79837000  1.87710000  1
  Mo  Mo8  1  7.45128000  3.60747000  3.68161000  1
  Mo  Mo9  1  1.81443000  5.39859000  -0.09872140  1
  Mo  Mo10  1  1.80114000  3.78155000  1.82451000  1
  Mo  Mo11  1  7.10752000  5.43970000  1.86060000  1
  Mo  Mo12  1  3.73351000  3.62964000  0.03157090  1
  Mo  Mo13  1  5.41557000  5.60770000  3.67907000  1
  Mo  Mo14  1  5.51934000  3.69967000  1.89151000  1
  Mo  Mo15  1  3.77650000  5.48132000  1.79584000  1
