# generated using pymatgen
data_Mo
_symmetry_space_group_name_H-M   'P 1'
_cell_length_a   7.33670808
_cell_length_b   7.33670808
_cell_length_c   3.66835403
_cell_angle_alpha   90.00000000
_cell_angle_beta   90.00000000
_cell_angle_gamma   90.00000000
_symmetry_Int_Tables_number   1
_chemical_formula_structural   Mo
_chemical_formula_sum   Mo16
_cell_volume   197.45753985
_cell_formula_units_Z   16
loop_
 _symmetry_equiv_pos_site_id
 _symmetry_equiv_pos_as_xyz
  1  'x, y, z'
loop_
 _atom_site_type_symbol
 _atom_site_label
 _atom_site_symmetry_multiplicity
 _atom_site_fract_x
 _atom_site_fract_y
 _atom_site_fract_z
 _atom_site_occupancy
  Mo  Mo0  1  -0.08539220  7.24640000  3.69112000  1
  Mo  Mo1  1  1.80365000  1.73729000  3.69839000  1
  Mo  Mo2  1  1.96381000  0.00474016  1.75242000  1
  Mo  Mo3  1  7.21919000  1.56862000  1.84393000  1
  Mo  Mo4  1  3.59101000  0.14609400  -0.02811150  1
  Mo  Mo5  1  5.61532000  1.80870000  3.85970000  1
  Mo  Mo6  1  5.36994000  -0.09822810  1.77816000  1
  Mo  Mo7  1  3.61451000  1.96825000  1.78926000  1
  Mo  Mo8  1  7.20772000  3.66640000  3.63569000  1
  Mo  Mo9  1  1.87354000  5.50704000  -0.17067400  1
  Mo  Mo10  1  1.80725000  3.65871000  1.55531000  1
  Mo  Mo11  1  -0.07618050  5.56066000  1.94950000  1
  Mo  Mo12  1  3.76331000  3.58696000  3.54079000  1
  Mo  Mo13  1  5.45075000  5.51356000  -0.00231796  1
  Mo  Mo14  1  5.51945000  3.61454000  2.03997000  1
  Mo  Mo15  1  3.58614000  5.39756000  1.84723000  1
