# generated using pymatgen
data_Mo
_symmetry_space_group_name_H-M   'P 1'
_cell_length_a   7.33670808
_cell_length_b   7.33670808
_cell_length_c   3.66835403
_cell_angle_alpha   90.00000000
_cell_angle_beta   90.00000000
_cell_angle_gamma   90.00000000
_symmetry_Int_Tables_number   1
_chemical_formula_structural   Mo
_chemical_formula_sum   Mo16
_cell_volume   197.45753985
_cell_formula_units_Z   16
loop_
 _symmetry_equiv_pos_site_id
 _symmetry_equiv_pos_as_xyz
  1  'x, y, z'
loop_
 _atom_site_type_symbol
 _atom_site_label
 _atom_site_symmetry_multiplicity
 _atom_site_fract_x
 _atom_site_fract_y
 _atom_site_fract_z
 _atom_site_occupancy
  Mo  Mo0  1  -0.05395490  7.41944000  3.60116000  1
  Mo  Mo1  1  1.75746000  1.91156000  3.72766000  1
  Mo  Mo2  1  1.79881000  0.02022060  1.62476000  1
  Mo  Mo3  1  7.42715000  1.80864000  1.82483000  1
  Mo  Mo4  1  3.52222000  0.02315220  -0.23603900  1
  Mo  Mo5  1  5.71354000  1.88824000  3.57967000  1
  Mo  Mo6  1  5.21598000  -0.17345200  1.81108000  1
  Mo  Mo7  1  3.47532000  2.00403000  1.78966000  1
  Mo  Mo8  1  7.30203000  3.65368000  3.77591000  1
  Mo  Mo9  1  1.88107000  5.36688000  -0.01642890  1
  Mo  Mo10  1  1.61690000  3.54593000  1.98718000  1
  Mo  Mo11  1  0.09455940  5.48865000  1.89308000  1
  Mo  Mo12  1  3.84669000  3.53124000  3.51715000  1
  Mo  Mo13  1  5.49571000  5.39270000  0.06826790  1
  Mo  Mo14  1  5.55460000  3.63005000  1.90360000  1
  Mo  Mo15  1  3.57592000  5.37634000  1.92880000  1
