# generated using pymatgen
data_Mo
_symmetry_space_group_name_H-M   'P 1'
_cell_length_a   7.33670808
_cell_length_b   7.33670808
_cell_length_c   3.66835403
_cell_angle_alpha   90.00000000
_cell_angle_beta   90.00000000
_cell_angle_gamma   90.00000000
_symmetry_Int_Tables_number   1
_chemical_formula_structural   Mo
_chemical_formula_sum   Mo16
_cell_volume   197.45753985
_cell_formula_units_Z   16
loop_
 _symmetry_equiv_pos_site_id
 _symmetry_equiv_pos_as_xyz
  1  'x, y, z'
loop_
 _atom_site_type_symbol
 _atom_site_label
 _atom_site_symmetry_multiplicity
 _atom_site_fract_x
 _atom_site_fract_y
 _atom_site_fract_z
 _atom_site_occupancy
  Mo  Mo0  1  -0.00566918  7.33131000  3.61496000  1
  Mo  Mo1  1  1.96507000  1.90964000  3.70776000  1
  Mo  Mo2  1  1.75965000  0.00215233  1.95551000  1
  Mo  Mo3  1  7.11446000  1.85386000  1.64299000  1
  Mo  Mo4  1  3.52002000  -0.14943600  0.05516330  1
  Mo  Mo5  1  5.34482000  1.73034000  3.54473000  1
  Mo  Mo6  1  5.53721000  0.03301300  1.68130000  1
  Mo  Mo7  1  3.60505000  1.89734000  1.78055000  1
  Mo  Mo8  1  7.27312000  3.53520000  3.74317000  1
  Mo  Mo9  1  1.69626000  5.52860000  -0.01784580  1
  Mo  Mo10  1  1.73968000  3.61203000  1.76620000  1
  Mo  Mo11  1  -0.05853180  5.43519000  1.85878000  1
  Mo  Mo12  1  3.82431000  3.58999000  3.68706000  1
  Mo  Mo13  1  5.59197000  5.54977000  0.04248260  1
  Mo  Mo14  1  5.57867000  3.58891000  1.84735000  1
  Mo  Mo15  1  3.73791000  5.43939000  1.87019000  1
