# generated using pymatgen
data_Mo
_symmetry_space_group_name_H-M   'P 1'
_cell_length_a   7.33670808
_cell_length_b   7.33670808
_cell_length_c   3.66835403
_cell_angle_alpha   90.00000000
_cell_angle_beta   90.00000000
_cell_angle_gamma   90.00000000
_symmetry_Int_Tables_number   1
_chemical_formula_structural   Mo
_chemical_formula_sum   Mo16
_cell_volume   197.45753985
_cell_formula_units_Z   16
loop_
 _symmetry_equiv_pos_site_id
 _symmetry_equiv_pos_as_xyz
  1  'x, y, z'
loop_
 _atom_site_type_symbol
 _atom_site_label
 _atom_site_symmetry_multiplicity
 _atom_site_fract_x
 _atom_site_fract_y
 _atom_site_fract_z
 _atom_site_occupancy
  Mo  Mo0  1  -0.03763250  7.15105000  3.53687000  1
  Mo  Mo1  1  1.64357000  1.78774000  3.69545000  1
  Mo  Mo2  1  1.70686000  0.03409450  1.89411000  1
  Mo  Mo3  1  7.28201000  1.76842000  1.81047000  1
  Mo  Mo4  1  3.68598000  0.17443200  -0.04004280  1
  Mo  Mo5  1  5.65403000  1.85976000  3.78039000  1
  Mo  Mo6  1  5.46195000  0.08641590  1.76792000  1
  Mo  Mo7  1  3.31389000  1.83320000  2.02097000  1
  Mo  Mo8  1  7.29935000  3.53371000  3.55300000  1
  Mo  Mo9  1  1.90646000  5.36511000  -0.15266700  1
  Mo  Mo10  1  1.80051000  3.63055000  1.84809000  1
  Mo  Mo11  1  0.06103620  5.46531000  1.72646000  1
  Mo  Mo12  1  3.67808000  3.66137000  3.72344000  1
  Mo  Mo13  1  5.52934000  5.56010000  -0.09547770  1
  Mo  Mo14  1  5.56166000  3.60514000  1.85426000  1
  Mo  Mo15  1  3.67691000  5.37090000  1.85712000  1
