# generated using pymatgen
data_Mo
_symmetry_space_group_name_H-M   'P 1'
_cell_length_a   7.33670808
_cell_length_b   7.33670808
_cell_length_c   3.66835403
_cell_angle_alpha   90.00000000
_cell_angle_beta   90.00000000
_cell_angle_gamma   90.00000000
_symmetry_Int_Tables_number   1
_chemical_formula_structural   Mo
_chemical_formula_sum   Mo16
_cell_volume   197.45753985
_cell_formula_units_Z   16
loop_
 _symmetry_equiv_pos_site_id
 _symmetry_equiv_pos_as_xyz
  1  'x, y, z'
loop_
 _atom_site_type_symbol
 _atom_site_label
 _atom_site_symmetry_multiplicity
 _atom_site_fract_x
 _atom_site_fract_y
 _atom_site_fract_z
 _atom_site_occupancy
  Mo  Mo0  1  0.10023400  7.43160000  3.66056000  1
  Mo  Mo1  1  1.83101000  1.89627000  3.65056000  1
  Mo  Mo2  1  1.73021000  0.06592200  1.77580000  1
  Mo  Mo3  1  7.31796000  1.66157000  1.85779000  1
  Mo  Mo4  1  3.55238000  -0.03225440  -0.26284200  1
  Mo  Mo5  1  5.40400000  1.79890000  3.82918000  1
  Mo  Mo6  1  5.40017000  -0.00399165  1.79321000  1
  Mo  Mo7  1  3.75403000  1.91263000  1.79488000  1
  Mo  Mo8  1  7.11321000  3.45742000  3.93738000  1
  Mo  Mo9  1  1.81455000  5.46899000  -0.04331850  1
  Mo  Mo10  1  1.91158000  3.74769000  1.72997000  1
  Mo  Mo11  1  0.00102246  5.35075000  1.73298000  1
  Mo  Mo12  1  3.66821000  3.70445000  3.62991000  1
  Mo  Mo13  1  5.50744000  5.36408000  -0.06156670  1
  Mo  Mo14  1  5.59326000  3.59708000  1.95486000  1
  Mo  Mo15  1  3.52473000  5.46618000  1.80099000  1
