# generated using pymatgen
data_Mo
_symmetry_space_group_name_H-M   'P 1'
_cell_length_a   7.33670808
_cell_length_b   7.33670808
_cell_length_c   3.66835403
_cell_angle_alpha   90.00000000
_cell_angle_beta   90.00000000
_cell_angle_gamma   90.00000000
_symmetry_Int_Tables_number   1
_chemical_formula_structural   Mo
_chemical_formula_sum   Mo16
_cell_volume   197.45753985
_cell_formula_units_Z   16
loop_
 _symmetry_equiv_pos_site_id
 _symmetry_equiv_pos_as_xyz
  1  'x, y, z'
loop_
 _atom_site_type_symbol
 _atom_site_label
 _atom_site_symmetry_multiplicity
 _atom_site_fract_x
 _atom_site_fract_y
 _atom_site_fract_z
 _atom_site_occupancy
  Mo  Mo0  1  -0.05424720  7.38122000  3.37462000  1
  Mo  Mo1  1  1.80475000  2.06721000  3.81087000  1
  Mo  Mo2  1  1.72910000  0.09416970  1.83556000  1
  Mo  Mo3  1  7.33303000  1.86439000  1.70591000  1
  Mo  Mo4  1  3.76290000  -0.00469296  -0.00071882  1
  Mo  Mo5  1  5.48889000  1.97782000  3.66938000  1
  Mo  Mo6  1  5.49416000  -0.18567000  1.74746000  1
  Mo  Mo7  1  3.67195000  1.69643000  1.93255000  1
  Mo  Mo8  1  7.36609000  3.47350000  3.45255000  1
  Mo  Mo9  1  1.60696000  5.43620000  -0.01083770  1
  Mo  Mo10  1  1.85302000  3.54729000  1.92593000  1
  Mo  Mo11  1  -0.01041330  5.58268000  1.78176000  1
  Mo  Mo12  1  3.66773000  3.47034000  3.81306000  1
  Mo  Mo13  1  5.55519000  5.35775000  -0.09177940  1
  Mo  Mo14  1  5.37481000  3.66021000  1.84767000  1
  Mo  Mo15  1  3.58008000  5.46844000  1.98637000  1
