# generated using pymatgen
data_Mo
_symmetry_space_group_name_H-M   'P 1'
_cell_length_a   7.33670808
_cell_length_b   7.33670808
_cell_length_c   3.66835403
_cell_angle_alpha   90.00000000
_cell_angle_beta   90.00000000
_cell_angle_gamma   90.00000000
_symmetry_Int_Tables_number   1
_chemical_formula_structural   Mo
_chemical_formula_sum   Mo16
_cell_volume   197.45753985
_cell_formula_units_Z   16
loop_
 _symmetry_equiv_pos_site_id
 _symmetry_equiv_pos_as_xyz
  1  'x, y, z'
loop_
 _atom_site_type_symbol
 _atom_site_label
 _atom_site_symmetry_multiplicity
 _atom_site_fract_x
 _atom_site_fract_y
 _atom_site_fract_z
 _atom_site_occupancy
  Mo  Mo0  1  -0.08168230  7.37610000  3.57684000  1
  Mo  Mo1  1  1.69536000  1.88480000  3.65208000  1
  Mo  Mo2  1  1.70039000  0.03483240  1.79847000  1
  Mo  Mo3  1  7.15324000  1.83945000  1.63749000  1
  Mo  Mo4  1  3.63424000  -0.20704800  0.20743700  1
  Mo  Mo5  1  5.47790000  1.74262000  3.70146000  1
  Mo  Mo6  1  5.34751000  -0.09730520  1.80125000  1
  Mo  Mo7  1  3.63657000  1.92017000  1.87199000  1
  Mo  Mo8  1  7.43550000  3.73835000  3.45166000  1
  Mo  Mo9  1  1.95934000  5.55014000  0.03269600  1
  Mo  Mo10  1  1.77739000  3.49096000  1.62536000  1
  Mo  Mo11  1  0.14671400  5.66356000  1.74052000  1
  Mo  Mo12  1  3.76948000  3.49086000  3.66353000  1
  Mo  Mo13  1  5.51741000  5.57560000  -0.01793230  1
  Mo  Mo14  1  5.50787000  3.62052000  1.98722000  1
  Mo  Mo15  1  3.54678000  5.26368000  2.05029000  1
