# generated using pymatgen
data_Mo
_symmetry_space_group_name_H-M   'P 1'
_cell_length_a   7.33670808
_cell_length_b   7.33670808
_cell_length_c   3.66835403
_cell_angle_alpha   90.00000000
_cell_angle_beta   90.00000000
_cell_angle_gamma   90.00000000
_symmetry_Int_Tables_number   1
_chemical_formula_structural   Mo
_chemical_formula_sum   Mo16
_cell_volume   197.45753985
_cell_formula_units_Z   16
loop_
 _symmetry_equiv_pos_site_id
 _symmetry_equiv_pos_as_xyz
  1  'x, y, z'
loop_
 _atom_site_type_symbol
 _atom_site_label
 _atom_site_symmetry_multiplicity
 _atom_site_fract_x
 _atom_site_fract_y
 _atom_site_fract_z
 _atom_site_occupancy
  Mo  Mo0  1  -0.11986700  7.40308000  3.59069000  1
  Mo  Mo1  1  1.86804000  1.70606000  3.68695000  1
  Mo  Mo2  1  1.69787000  0.11722600  1.88055000  1
  Mo  Mo3  1  7.34986000  1.99227000  1.89006000  1
  Mo  Mo4  1  3.64465000  -0.27664800  0.11593400  1
  Mo  Mo5  1  5.33247000  1.87406000  3.71137000  1
  Mo  Mo6  1  5.50405000  0.04714050  1.81756000  1
  Mo  Mo7  1  3.71474000  1.86229000  1.83877000  1
  Mo  Mo8  1  7.52642000  3.72308000  3.67531000  1
  Mo  Mo9  1  1.87713000  5.53652000  -0.01299050  1
  Mo  Mo10  1  1.89722000  3.54028000  1.89578000  1
  Mo  Mo11  1  -0.17175000  5.48494000  1.54316000  1
  Mo  Mo12  1  3.56253000  3.68250000  3.69794000  1
  Mo  Mo13  1  5.49039000  5.31520000  -0.20754200  1
  Mo  Mo14  1  5.39968000  3.46561000  1.82831000  1
  Mo  Mo15  1  3.65056000  5.41368000  1.82852000  1
