# generated using pymatgen
data_Mo
_symmetry_space_group_name_H-M   'P 1'
_cell_length_a   7.29789726
_cell_length_b   7.29789726
_cell_length_c   3.64894867
_cell_angle_alpha   90.00000000
_cell_angle_beta   90.00000000
_cell_angle_gamma   90.00000000
_symmetry_Int_Tables_number   1
_chemical_formula_structural   Mo
_chemical_formula_sum   Mo16
_cell_volume   194.34046797
_cell_formula_units_Z   16
loop_
 _symmetry_equiv_pos_site_id
 _symmetry_equiv_pos_as_xyz
  1  'x, y, z'
loop_
 _atom_site_type_symbol
 _atom_site_label
 _atom_site_symmetry_multiplicity
 _atom_site_fract_x
 _atom_site_fract_y
 _atom_site_fract_z
 _atom_site_occupancy
  Mo  Mo0  1  7.28824000  0.02943320  0.00770348  1
  Mo  Mo1  1  1.96681000  2.01682000  0.01419950  1
  Mo  Mo2  1  1.79673000  7.30245000  1.84357000  1
  Mo  Mo3  1  7.23345000  1.79095000  1.69300000  1
  Mo  Mo4  1  3.75697000  7.32664000  3.57967000  1
  Mo  Mo5  1  5.43895000  1.77629000  -0.01078310  1
  Mo  Mo6  1  5.37153000  7.08556000  1.90291000  1
  Mo  Mo7  1  3.79806000  1.70387000  1.84977000  1
  Mo  Mo8  1  7.28040000  3.56633000  3.64582000  1
  Mo  Mo9  1  1.60798000  5.41952000  -0.09889350  1
  Mo  Mo10  1  1.89876000  3.63957000  1.87798000  1
  Mo  Mo11  1  7.39501000  5.45948000  1.87625000  1
  Mo  Mo12  1  3.63041000  3.73626000  -0.05686220  1
  Mo  Mo13  1  5.59739000  5.44307000  3.75146000  1
  Mo  Mo14  1  5.29043000  3.73943000  1.89170000  1
  Mo  Mo15  1  3.46869000  5.48623000  1.69555000  1
