# generated using pymatgen
data_Mo
_symmetry_space_group_name_H-M   'P 1'
_cell_length_a   7.33670808
_cell_length_b   7.33670808
_cell_length_c   3.66835403
_cell_angle_alpha   90.00000000
_cell_angle_beta   90.00000000
_cell_angle_gamma   90.00000000
_symmetry_Int_Tables_number   1
_chemical_formula_structural   Mo
_chemical_formula_sum   Mo16
_cell_volume   197.45753985
_cell_formula_units_Z   16
loop_
 _symmetry_equiv_pos_site_id
 _symmetry_equiv_pos_as_xyz
  1  'x, y, z'
loop_
 _atom_site_type_symbol
 _atom_site_label
 _atom_site_symmetry_multiplicity
 _atom_site_fract_x
 _atom_site_fract_y
 _atom_site_fract_z
 _atom_site_occupancy
  Mo  Mo0  1  0.03880670  7.35675000  3.51011000  1
  Mo  Mo1  1  1.77039000  1.88497000  3.47647000  1
  Mo  Mo2  1  1.72872000  0.04422720  1.81531000  1
  Mo  Mo3  1  7.39657000  1.79209000  1.76779000  1
  Mo  Mo4  1  3.49826000  -0.11195700  -0.12548100  1
  Mo  Mo5  1  5.55632000  1.78961000  3.72072000  1
  Mo  Mo6  1  5.33878000  -0.01648180  1.82271000  1
  Mo  Mo7  1  3.68491000  1.82099000  1.67479000  1
  Mo  Mo8  1  7.40251000  3.70885000  3.64180000  1
  Mo  Mo9  1  1.59970000  5.37933000  0.05377960  1
  Mo  Mo10  1  1.88971000  3.50605000  1.86904000  1
  Mo  Mo11  1  -0.07109520  5.59785000  1.97371000  1
  Mo  Mo12  1  3.68424000  3.57543000  3.93926000  1
  Mo  Mo13  1  5.36909000  5.50721000  -0.10177500  1
  Mo  Mo14  1  5.72828000  3.50684000  1.93304000  1
  Mo  Mo15  1  3.60881000  5.54554000  1.80908000  1
