# generated using pymatgen
data_Mo
_symmetry_space_group_name_H-M   'P 1'
_cell_length_a   7.33670808
_cell_length_b   7.33670808
_cell_length_c   3.66835403
_cell_angle_alpha   90.00000000
_cell_angle_beta   90.00000000
_cell_angle_gamma   90.00000000
_symmetry_Int_Tables_number   1
_chemical_formula_structural   Mo
_chemical_formula_sum   Mo16
_cell_volume   197.45753985
_cell_formula_units_Z   16
loop_
 _symmetry_equiv_pos_site_id
 _symmetry_equiv_pos_as_xyz
  1  'x, y, z'
loop_
 _atom_site_type_symbol
 _atom_site_label
 _atom_site_symmetry_multiplicity
 _atom_site_fract_x
 _atom_site_fract_y
 _atom_site_fract_z
 _atom_site_occupancy
  Mo  Mo0  1  -0.01062800  7.28611000  3.71546000  1
  Mo  Mo1  1  1.93791000  1.76337000  3.60675000  1
  Mo  Mo2  1  1.75849000  -0.03172590  1.87103000  1
  Mo  Mo3  1  7.25015000  1.83358000  1.95556000  1
  Mo  Mo4  1  3.76171000  0.04181200  -0.13306000  1
  Mo  Mo5  1  5.54075000  1.57970000  3.66521000  1
  Mo  Mo6  1  5.58821000  -0.00039858  1.94138000  1
  Mo  Mo7  1  3.66922000  2.02980000  1.71566000  1
  Mo  Mo8  1  7.25731000  3.55124000  3.53795000  1
  Mo  Mo9  1  1.79743000  5.75738000  0.01858820  1
  Mo  Mo10  1  1.80836000  3.58106000  1.82549000  1
  Mo  Mo11  1  -0.01914700  5.53534000  1.84738000  1
  Mo  Mo12  1  3.66799000  3.53984000  3.59212000  1
  Mo  Mo13  1  5.45463000  5.53301000  -0.04647820  1
  Mo  Mo14  1  5.28769000  3.63233000  1.92207000  1
  Mo  Mo15  1  3.47393000  5.25485000  1.74523000  1
