# generated using pymatgen
data_Mo
_symmetry_space_group_name_H-M   'P 1'
_cell_length_a   7.33670808
_cell_length_b   7.33670808
_cell_length_c   3.66835403
_cell_angle_alpha   90.00000000
_cell_angle_beta   90.00000000
_cell_angle_gamma   90.00000000
_symmetry_Int_Tables_number   1
_chemical_formula_structural   Mo
_chemical_formula_sum   Mo16
_cell_volume   197.45753985
_cell_formula_units_Z   16
loop_
 _symmetry_equiv_pos_site_id
 _symmetry_equiv_pos_as_xyz
  1  'x, y, z'
loop_
 _atom_site_type_symbol
 _atom_site_label
 _atom_site_symmetry_multiplicity
 _atom_site_fract_x
 _atom_site_fract_y
 _atom_site_fract_z
 _atom_site_occupancy
  Mo  Mo0  1  0.10205000  7.45961000  3.62862000  1
  Mo  Mo1  1  1.76798000  1.71694000  3.52221000  1
  Mo  Mo2  1  1.89907000  -0.03104390  1.79056000  1
  Mo  Mo3  1  7.00565000  2.00986000  1.89359000  1
  Mo  Mo4  1  3.63325000  -0.08917960  0.07247350  1
  Mo  Mo5  1  5.52333000  1.81543000  3.69674000  1
  Mo  Mo6  1  5.41028000  -0.20649800  1.75032000  1
  Mo  Mo7  1  3.76228000  1.70496000  1.72694000  1
  Mo  Mo8  1  7.56485000  3.47081000  3.72649000  1
  Mo  Mo9  1  1.75078000  5.58739000  0.00154018  1
  Mo  Mo10  1  1.68007000  3.70417000  1.77067000  1
  Mo  Mo11  1  0.04074550  5.61732000  1.83633000  1
  Mo  Mo12  1  3.55297000  3.51760000  3.55777000  1
  Mo  Mo13  1  5.60040000  5.38463000  -0.05333450  1
  Mo  Mo14  1  5.38980000  3.79104000  1.76611000  1
  Mo  Mo15  1  3.54049000  5.43424000  2.09333000  1
