# generated using pymatgen
data_Mo
_symmetry_space_group_name_H-M   'P 1'
_cell_length_a   7.33670808
_cell_length_b   7.33670808
_cell_length_c   3.66835403
_cell_angle_alpha   90.00000000
_cell_angle_beta   90.00000000
_cell_angle_gamma   90.00000000
_symmetry_Int_Tables_number   1
_chemical_formula_structural   Mo
_chemical_formula_sum   Mo16
_cell_volume   197.45753985
_cell_formula_units_Z   16
loop_
 _symmetry_equiv_pos_site_id
 _symmetry_equiv_pos_as_xyz
  1  'x, y, z'
loop_
 _atom_site_type_symbol
 _atom_site_label
 _atom_site_symmetry_multiplicity
 _atom_site_fract_x
 _atom_site_fract_y
 _atom_site_fract_z
 _atom_site_occupancy
  Mo  Mo0  1  -0.16591400  7.39607000  3.71049000  1
  Mo  Mo1  1  1.76857000  1.72066000  3.68017000  1
  Mo  Mo2  1  1.83239000  -0.06246980  1.96464000  1
  Mo  Mo3  1  7.49298000  1.77293000  1.78931000  1
  Mo  Mo4  1  3.76737000  0.01543430  0.03196040  1
  Mo  Mo5  1  5.32111000  1.71956000  3.78895000  1
  Mo  Mo6  1  5.40668000  -0.03209030  2.04354000  1
  Mo  Mo7  1  3.71449000  1.99627000  1.88038000  1
  Mo  Mo8  1  7.23473000  3.64274000  3.48037000  1
  Mo  Mo9  1  1.81798000  5.34580000  -0.00826372  1
  Mo  Mo10  1  1.87303000  3.72277000  1.75269000  1
  Mo  Mo11  1  -0.10010600  5.57821000  1.67070000  1
  Mo  Mo12  1  3.57201000  3.53817000  3.73031000  1
  Mo  Mo13  1  5.31581000  5.50924000  -0.15654700  1
  Mo  Mo14  1  5.70469000  3.61843000  1.80632000  1
  Mo  Mo15  1  3.66819000  5.40556000  1.61533000  1
