# generated using pymatgen
data_Mo
_symmetry_space_group_name_H-M   'P 1'
_cell_length_a   7.33670808
_cell_length_b   7.33670808
_cell_length_c   3.66835403
_cell_angle_alpha   90.00000000
_cell_angle_beta   90.00000000
_cell_angle_gamma   90.00000000
_symmetry_Int_Tables_number   1
_chemical_formula_structural   Mo
_chemical_formula_sum   Mo16
_cell_volume   197.45753985
_cell_formula_units_Z   16
loop_
 _symmetry_equiv_pos_site_id
 _symmetry_equiv_pos_as_xyz
  1  'x, y, z'
loop_
 _atom_site_type_symbol
 _atom_site_label
 _atom_site_symmetry_multiplicity
 _atom_site_fract_x
 _atom_site_fract_y
 _atom_site_fract_z
 _atom_site_occupancy
  Mo  Mo0  1  0.14459600  7.27370000  3.80587000  1
  Mo  Mo1  1  1.71243000  1.77668000  3.72120000  1
  Mo  Mo2  1  1.84159000  0.10133700  2.02933000  1
  Mo  Mo3  1  7.26560000  1.85104000  1.82537000  1
  Mo  Mo4  1  3.86253000  0.07775540  0.08417090  1
  Mo  Mo5  1  5.61248000  1.82703000  3.70886000  1
  Mo  Mo6  1  5.67287000  -0.18831100  1.90368000  1
  Mo  Mo7  1  3.74039000  1.79433000  1.76849000  1
  Mo  Mo8  1  7.04713000  3.62958000  3.51408000  1
  Mo  Mo9  1  1.78188000  5.40347000  -0.03857290  1
  Mo  Mo10  1  1.81605000  3.70868000  1.69249000  1
  Mo  Mo11  1  -0.05639760  5.33006000  1.67923000  1
  Mo  Mo12  1  3.51738000  3.58013000  3.66440000  1
  Mo  Mo13  1  5.32569000  5.51189000  -0.10906900  1
  Mo  Mo14  1  5.37944000  3.72359000  1.71709000  1
  Mo  Mo15  1  3.56035000  5.48634000  1.81376000  1
