# generated using pymatgen
data_Mo
_symmetry_space_group_name_H-M   'P 1'
_cell_length_a   7.33670808
_cell_length_b   7.33670808
_cell_length_c   3.66835403
_cell_angle_alpha   90.00000000
_cell_angle_beta   90.00000000
_cell_angle_gamma   90.00000000
_symmetry_Int_Tables_number   1
_chemical_formula_structural   Mo
_chemical_formula_sum   Mo16
_cell_volume   197.45753985
_cell_formula_units_Z   16
loop_
 _symmetry_equiv_pos_site_id
 _symmetry_equiv_pos_as_xyz
  1  'x, y, z'
loop_
 _atom_site_type_symbol
 _atom_site_label
 _atom_site_symmetry_multiplicity
 _atom_site_fract_x
 _atom_site_fract_y
 _atom_site_fract_z
 _atom_site_occupancy
  Mo  Mo0  1  0.05723620  7.38165000  3.64058000  1
  Mo  Mo1  1  1.81651000  1.97520000  3.68584000  1
  Mo  Mo2  1  1.80882000  -0.04945030  1.77976000  1
  Mo  Mo3  1  7.31551000  1.73112000  1.82732000  1
  Mo  Mo4  1  3.61933000  0.04174880  0.02307600  1
  Mo  Mo5  1  5.49901000  1.78736000  3.76076000  1
  Mo  Mo6  1  5.74160000  -0.35468200  1.71938000  1
  Mo  Mo7  1  3.67015000  1.92587000  1.89782000  1
  Mo  Mo8  1  7.10368000  3.35782000  3.63921000  1
  Mo  Mo9  1  1.74395000  5.36175000  0.01278760  1
  Mo  Mo10  1  1.83197000  3.65735000  1.68284000  1
  Mo  Mo11  1  0.15684100  5.27788000  1.86150000  1
  Mo  Mo12  1  3.74899000  3.64136000  3.58955000  1
  Mo  Mo13  1  5.25318000  5.60131000  -0.03780480  1
  Mo  Mo14  1  5.32709000  3.94796000  1.73157000  1
  Mo  Mo15  1  3.53011000  5.60305000  1.96616000  1
