# generated using pymatgen
data_Mo
_symmetry_space_group_name_H-M   'P 1'
_cell_length_a   7.33670808
_cell_length_b   7.33670808
_cell_length_c   3.66835403
_cell_angle_alpha   90.00000000
_cell_angle_beta   90.00000000
_cell_angle_gamma   90.00000000
_symmetry_Int_Tables_number   1
_chemical_formula_structural   Mo
_chemical_formula_sum   Mo16
_cell_volume   197.45753985
_cell_formula_units_Z   16
loop_
 _symmetry_equiv_pos_site_id
 _symmetry_equiv_pos_as_xyz
  1  'x, y, z'
loop_
 _atom_site_type_symbol
 _atom_site_label
 _atom_site_symmetry_multiplicity
 _atom_site_fract_x
 _atom_site_fract_y
 _atom_site_fract_z
 _atom_site_occupancy
  Mo  Mo0  1  -0.05718540  7.27718000  3.82396000  1
  Mo  Mo1  1  1.76925000  1.70257000  3.64920000  1
  Mo  Mo2  1  1.75838000  -0.15942100  1.94477000  1
  Mo  Mo3  1  7.14988000  1.65676000  1.80679000  1
  Mo  Mo4  1  3.85002000  0.09504700  -0.09844740  1
  Mo  Mo5  1  5.50768000  2.01057000  3.62360000  1
  Mo  Mo6  1  5.35748000  -0.06032460  1.84411000  1
  Mo  Mo7  1  3.39550000  1.75611000  1.75875000  1
  Mo  Mo8  1  7.55842000  3.64124000  3.67510000  1
  Mo  Mo9  1  1.84404000  5.40915000  0.06586630  1
  Mo  Mo10  1  1.94880000  3.83853000  1.86603000  1
  Mo  Mo11  1  0.05951070  5.43926000  1.95275000  1
  Mo  Mo12  1  3.46998000  3.55014000  3.59489000  1
  Mo  Mo13  1  5.37148000  5.49238000  -0.08985080  1
  Mo  Mo14  1  5.56079000  3.62574000  1.69702000  1
  Mo  Mo15  1  3.67998000  5.61237000  1.66581000  1
