# generated using pymatgen
data_Mo
_symmetry_space_group_name_H-M   'P 1'
_cell_length_a   7.33670808
_cell_length_b   7.33670808
_cell_length_c   3.66835403
_cell_angle_alpha   90.00000000
_cell_angle_beta   90.00000000
_cell_angle_gamma   90.00000000
_symmetry_Int_Tables_number   1
_chemical_formula_structural   Mo
_chemical_formula_sum   Mo16
_cell_volume   197.45753985
_cell_formula_units_Z   16
loop_
 _symmetry_equiv_pos_site_id
 _symmetry_equiv_pos_as_xyz
  1  'x, y, z'
loop_
 _atom_site_type_symbol
 _atom_site_label
 _atom_site_symmetry_multiplicity
 _atom_site_fract_x
 _atom_site_fract_y
 _atom_site_fract_z
 _atom_site_occupancy
  Mo  Mo0  1  -0.06906250  7.47909000  3.72867000  1
  Mo  Mo1  1  1.86943000  1.64945000  3.62933000  1
  Mo  Mo2  1  1.64534000  -0.07764140  1.61668000  1
  Mo  Mo3  1  7.12738000  1.72839000  1.82084000  1
  Mo  Mo4  1  3.70607000  -0.01165680  -0.14697700  1
  Mo  Mo5  1  5.38463000  1.88380000  3.64015000  1
  Mo  Mo6  1  5.34130000  -0.07171100  1.78003000  1
  Mo  Mo7  1  3.56763000  1.82767000  1.96374000  1
  Mo  Mo8  1  7.51476000  3.74699000  3.67574000  1
  Mo  Mo9  1  1.92823000  5.45838000  0.03110810  1
  Mo  Mo10  1  1.79609000  3.84230000  1.93800000  1
  Mo  Mo11  1  0.03569460  5.57981000  1.89278000  1
  Mo  Mo12  1  3.55480000  3.68377000  3.69571000  1
  Mo  Mo13  1  5.43386000  5.23102000  -0.05370160  1
  Mo  Mo14  1  5.69251000  3.51686000  1.81173000  1
  Mo  Mo15  1  3.69534000  5.42079000  1.75652000  1
