# generated using pymatgen
data_Mo
_symmetry_space_group_name_H-M   'P 1'
_cell_length_a   7.29789726
_cell_length_b   7.29789726
_cell_length_c   3.64894867
_cell_angle_alpha   90.00000000
_cell_angle_beta   90.00000000
_cell_angle_gamma   90.00000000
_symmetry_Int_Tables_number   1
_chemical_formula_structural   Mo
_chemical_formula_sum   Mo16
_cell_volume   194.34046797
_cell_formula_units_Z   16
loop_
 _symmetry_equiv_pos_site_id
 _symmetry_equiv_pos_as_xyz
  1  'x, y, z'
loop_
 _atom_site_type_symbol
 _atom_site_label
 _atom_site_symmetry_multiplicity
 _atom_site_fract_x
 _atom_site_fract_y
 _atom_site_fract_z
 _atom_site_occupancy
  Mo  Mo0  1  7.19892000  -0.00875687  0.05258220  1
  Mo  Mo1  1  1.84480000  1.82232000  -0.01349770  1
  Mo  Mo2  1  1.69246000  7.28466000  1.84373000  1
  Mo  Mo3  1  7.28301000  1.94440000  1.81875000  1
  Mo  Mo4  1  3.73293000  7.28508000  3.64067000  1
  Mo  Mo5  1  5.55969000  1.77617000  0.05658950  1
  Mo  Mo6  1  5.50802000  7.24313000  1.76620000  1
  Mo  Mo7  1  3.50406000  1.68214000  1.97874000  1
  Mo  Mo8  1  7.44294000  3.84737000  3.54662000  1
  Mo  Mo9  1  1.81206000  5.52101000  -0.06487280  1
  Mo  Mo10  1  1.97626000  3.63753000  1.76548000  1
  Mo  Mo11  1  7.16191000  5.40969000  1.85568000  1
  Mo  Mo12  1  3.73749000  3.63019000  -0.00762156  1
  Mo  Mo13  1  5.33248000  5.32351000  3.63197000  1
  Mo  Mo14  1  5.46507000  3.63429000  1.80746000  1
  Mo  Mo15  1  3.56769000  5.48916000  1.78455000  1
