# generated using pymatgen
data_Mo
_symmetry_space_group_name_H-M   'P 1'
_cell_length_a   7.33670808
_cell_length_b   7.33670808
_cell_length_c   3.66835403
_cell_angle_alpha   90.00000000
_cell_angle_beta   90.00000000
_cell_angle_gamma   90.00000000
_symmetry_Int_Tables_number   1
_chemical_formula_structural   Mo
_chemical_formula_sum   Mo16
_cell_volume   197.45753985
_cell_formula_units_Z   16
loop_
 _symmetry_equiv_pos_site_id
 _symmetry_equiv_pos_as_xyz
  1  'x, y, z'
loop_
 _atom_site_type_symbol
 _atom_site_label
 _atom_site_symmetry_multiplicity
 _atom_site_fract_x
 _atom_site_fract_y
 _atom_site_fract_z
 _atom_site_occupancy
  Mo  Mo0  1  0.10449400  7.35912000  3.60864000  1
  Mo  Mo1  1  1.89842000  1.66563000  3.51072000  1
  Mo  Mo2  1  1.88068000  -0.09961360  1.79946000  1
  Mo  Mo3  1  7.51975000  1.76947000  1.74005000  1
  Mo  Mo4  1  3.57300000  -0.13663800  -0.04681870  1
  Mo  Mo5  1  5.46095000  1.79829000  3.61686000  1
  Mo  Mo6  1  5.39024000  -0.02195830  1.89219000  1
  Mo  Mo7  1  3.67718000  1.71532000  1.88900000  1
  Mo  Mo8  1  7.18634000  3.60316000  3.50491000  1
  Mo  Mo9  1  1.80547000  5.52141000  -0.05437160  1
  Mo  Mo10  1  1.79989000  3.63818000  1.85019000  1
  Mo  Mo11  1  -0.25796400  5.40350000  1.70798000  1
  Mo  Mo12  1  3.76445000  3.76790000  3.92019000  1
  Mo  Mo13  1  5.45820000  5.51955000  -0.01781020  1
  Mo  Mo14  1  5.29427000  3.67682000  1.93346000  1
  Mo  Mo15  1  3.66864000  5.70716000  1.92570000  1
