# generated using pymatgen
data_Mo
_symmetry_space_group_name_H-M   'P 1'
_cell_length_a   7.29789726
_cell_length_b   7.29789726
_cell_length_c   3.64894867
_cell_angle_alpha   90.00000000
_cell_angle_beta   90.00000000
_cell_angle_gamma   90.00000000
_symmetry_Int_Tables_number   1
_chemical_formula_structural   Mo
_chemical_formula_sum   Mo16
_cell_volume   194.34046797
_cell_formula_units_Z   16
loop_
 _symmetry_equiv_pos_site_id
 _symmetry_equiv_pos_as_xyz
  1  'x, y, z'
loop_
 _atom_site_type_symbol
 _atom_site_label
 _atom_site_symmetry_multiplicity
 _atom_site_fract_x
 _atom_site_fract_y
 _atom_site_fract_z
 _atom_site_occupancy
  Mo  Mo0  1  7.12569000  0.01946470  0.01573780  1
  Mo  Mo1  1  1.78072000  1.79912000  0.01392840  1
  Mo  Mo2  1  1.81239000  7.06363000  1.81556000  1
  Mo  Mo3  1  7.27390000  1.85975000  1.85334000  1
  Mo  Mo4  1  3.49981000  7.48966000  3.69756000  1
  Mo  Mo5  1  5.52532000  1.86405000  0.15949400  1
  Mo  Mo6  1  5.52302000  7.29561000  1.76879000  1
  Mo  Mo7  1  3.65382000  1.79023000  1.86252000  1
  Mo  Mo8  1  7.31979000  3.61420000  3.49777000  1
  Mo  Mo9  1  1.80450000  5.43937000  0.03422330  1
  Mo  Mo10  1  2.02173000  3.74474000  1.76664000  1
  Mo  Mo11  1  7.18902000  5.40788000  1.72102000  1
  Mo  Mo12  1  3.56950000  3.56664000  0.00437328  1
  Mo  Mo13  1  5.40994000  5.40414000  3.55871000  1
  Mo  Mo14  1  5.50376000  3.59747000  1.90911000  1
  Mo  Mo15  1  3.80687000  5.56593000  1.78427000  1
