# generated using pymatgen
data_Mo
_symmetry_space_group_name_H-M   'P 1'
_cell_length_a   7.29789726
_cell_length_b   7.29789726
_cell_length_c   3.64894867
_cell_angle_alpha   90.00000000
_cell_angle_beta   90.00000000
_cell_angle_gamma   90.00000000
_symmetry_Int_Tables_number   1
_chemical_formula_structural   Mo
_chemical_formula_sum   Mo16
_cell_volume   194.34046797
_cell_formula_units_Z   16
loop_
 _symmetry_equiv_pos_site_id
 _symmetry_equiv_pos_as_xyz
  1  'x, y, z'
loop_
 _atom_site_type_symbol
 _atom_site_label
 _atom_site_symmetry_multiplicity
 _atom_site_fract_x
 _atom_site_fract_y
 _atom_site_fract_z
 _atom_site_occupancy
  Mo  Mo0  1  7.14351000  -0.00306059  0.00059161  1
  Mo  Mo1  1  1.84693000  1.81801000  -0.06668000  1
  Mo  Mo2  1  1.67465000  7.08978000  1.77518000  1
  Mo  Mo3  1  7.28070000  1.80065000  1.73639000  1
  Mo  Mo4  1  3.68509000  7.25727000  3.74170000  1
  Mo  Mo5  1  5.43265000  1.89752000  0.03661360  1
  Mo  Mo6  1  5.44690000  7.46402000  1.88823000  1
  Mo  Mo7  1  3.57399000  1.73879000  1.97505000  1
  Mo  Mo8  1  7.35076000  3.63446000  3.61926000  1
  Mo  Mo9  1  1.95956000  5.46194000  -0.06108760  1
  Mo  Mo10  1  1.75471000  3.63052000  1.75395000  1
  Mo  Mo11  1  7.23061000  5.55633000  1.72370000  1
  Mo  Mo12  1  3.59642000  3.64347000  0.08068210  1
  Mo  Mo13  1  5.50538000  5.30683000  3.59736000  1
  Mo  Mo14  1  5.53034000  3.65859000  1.78441000  1
  Mo  Mo15  1  3.80761000  5.56676000  1.87771000  1
