# generated using pymatgen
data_Mo
_symmetry_space_group_name_H-M   'P 1'
_cell_length_a   7.29789726
_cell_length_b   7.29789726
_cell_length_c   3.64894867
_cell_angle_alpha   90.00000000
_cell_angle_beta   90.00000000
_cell_angle_gamma   90.00000000
_symmetry_Int_Tables_number   1
_chemical_formula_structural   Mo
_chemical_formula_sum   Mo16
_cell_volume   194.34046797
_cell_formula_units_Z   16
loop_
 _symmetry_equiv_pos_site_id
 _symmetry_equiv_pos_as_xyz
  1  'x, y, z'
loop_
 _atom_site_type_symbol
 _atom_site_label
 _atom_site_symmetry_multiplicity
 _atom_site_fract_x
 _atom_site_fract_y
 _atom_site_fract_z
 _atom_site_occupancy
  Mo  Mo0  1  7.42651000  -0.00318490  0.11243800  1
  Mo  Mo1  1  1.86864000  1.75179000  -0.03020540  1
  Mo  Mo2  1  1.63788000  7.46424000  1.79239000  1
  Mo  Mo3  1  7.24015000  1.87853000  1.94117000  1
  Mo  Mo4  1  3.67859000  7.19106000  3.62474000  1
  Mo  Mo5  1  5.32975000  1.82638000  0.02492560  1
  Mo  Mo6  1  5.52415000  7.33080000  1.80627000  1
  Mo  Mo7  1  3.63840000  1.75301000  1.81069000  1
  Mo  Mo8  1  7.17968000  3.64307000  3.76644000  1
  Mo  Mo9  1  1.92619000  5.32723000  0.04780300  1
  Mo  Mo10  1  1.83305000  3.47160000  1.78598000  1
  Mo  Mo11  1  7.33350000  5.39700000  1.82893000  1
  Mo  Mo12  1  3.67672000  3.59498000  -0.19337500  1
  Mo  Mo13  1  5.54514000  5.69723000  3.69740000  1
  Mo  Mo14  1  5.37199000  3.69986000  1.76142000  1
  Mo  Mo15  1  3.60944000  5.49828000  1.68603000  1
