# generated using pymatgen
data_Mo
_symmetry_space_group_name_H-M   'P 1'
_cell_length_a   7.29789726
_cell_length_b   7.29789726
_cell_length_c   3.64894867
_cell_angle_alpha   90.00000000
_cell_angle_beta   90.00000000
_cell_angle_gamma   90.00000000
_symmetry_Int_Tables_number   1
_chemical_formula_structural   Mo
_chemical_formula_sum   Mo16
_cell_volume   194.34046797
_cell_formula_units_Z   16
loop_
 _symmetry_equiv_pos_site_id
 _symmetry_equiv_pos_as_xyz
  1  'x, y, z'
loop_
 _atom_site_type_symbol
 _atom_site_label
 _atom_site_symmetry_multiplicity
 _atom_site_fract_x
 _atom_site_fract_y
 _atom_site_fract_z
 _atom_site_occupancy
  Mo  Mo0  1  7.16878000  -0.04298010  -0.04849680  1
  Mo  Mo1  1  1.78186000  1.74503000  -0.02456270  1
  Mo  Mo2  1  1.79355000  7.22397000  1.79304000  1
  Mo  Mo3  1  7.42995000  1.77852000  1.85681000  1
  Mo  Mo4  1  3.62397000  7.32729000  3.55734000  1
  Mo  Mo5  1  5.53620000  1.73643000  0.02095480  1
  Mo  Mo6  1  5.37302000  7.43005000  1.75165000  1
  Mo  Mo7  1  3.68115000  2.00035000  1.64873000  1
  Mo  Mo8  1  7.27106000  3.65793000  3.78162000  1
  Mo  Mo9  1  1.81109000  5.46708000  0.03985150  1
  Mo  Mo10  1  1.85490000  3.70074000  1.86091000  1
  Mo  Mo11  1  7.17326000  5.36943000  1.92011000  1
  Mo  Mo12  1  3.50531000  3.57578000  -0.08063010  1
  Mo  Mo13  1  5.61480000  5.45949000  3.69214000  1
  Mo  Mo14  1  5.36235000  3.68031000  1.93701000  1
  Mo  Mo15  1  3.83854000  5.41248000  1.75658000  1
