# generated using pymatgen
data_Mo
_symmetry_space_group_name_H-M   'P 1'
_cell_length_a   7.29789726
_cell_length_b   7.29789726
_cell_length_c   3.64894867
_cell_angle_alpha   90.00000000
_cell_angle_beta   90.00000000
_cell_angle_gamma   90.00000000
_symmetry_Int_Tables_number   1
_chemical_formula_structural   Mo
_chemical_formula_sum   Mo16
_cell_volume   194.34046797
_cell_formula_units_Z   16
loop_
 _symmetry_equiv_pos_site_id
 _symmetry_equiv_pos_as_xyz
  1  'x, y, z'
loop_
 _atom_site_type_symbol
 _atom_site_label
 _atom_site_symmetry_multiplicity
 _atom_site_fract_x
 _atom_site_fract_y
 _atom_site_fract_z
 _atom_site_occupancy
  Mo  Mo0  1  7.25191000  0.12460300  0.01992170  1
  Mo  Mo1  1  1.81677000  1.98710000  0.05350340  1
  Mo  Mo2  1  1.77108000  7.27839000  1.73322000  1
  Mo  Mo3  1  7.24517000  1.76894000  1.91337000  1
  Mo  Mo4  1  3.68489000  7.28687000  3.58662000  1
  Mo  Mo5  1  5.38764000  1.75068000  0.08776900  1
  Mo  Mo6  1  5.43800000  7.18652000  1.74850000  1
  Mo  Mo7  1  3.63724000  1.64995000  1.78220000  1
  Mo  Mo8  1  7.20738000  3.63184000  3.62521000  1
  Mo  Mo9  1  1.78142000  5.50663000  0.04863820  1
  Mo  Mo10  1  1.94416000  3.75472000  1.90158000  1
  Mo  Mo11  1  7.28165000  5.47704000  1.76102000  1
  Mo  Mo12  1  3.73093000  3.54191000  0.08681310  1
  Mo  Mo13  1  5.44372000  5.45986000  3.49344000  1
  Mo  Mo14  1  5.53496000  3.62864000  1.92737000  1
  Mo  Mo15  1  3.66285000  5.48820000  1.69388000  1
