# generated using pymatgen
data_Mo
_symmetry_space_group_name_H-M   'P 1'
_cell_length_a   7.29789726
_cell_length_b   7.29789726
_cell_length_c   3.64894867
_cell_angle_alpha   90.00000000
_cell_angle_beta   90.00000000
_cell_angle_gamma   90.00000000
_symmetry_Int_Tables_number   1
_chemical_formula_structural   Mo
_chemical_formula_sum   Mo16
_cell_volume   194.34046797
_cell_formula_units_Z   16
loop_
 _symmetry_equiv_pos_site_id
 _symmetry_equiv_pos_as_xyz
  1  'x, y, z'
loop_
 _atom_site_type_symbol
 _atom_site_label
 _atom_site_symmetry_multiplicity
 _atom_site_fract_x
 _atom_site_fract_y
 _atom_site_fract_z
 _atom_site_occupancy
  Mo  Mo0  1  7.16149000  0.01343240  -0.17641100  1
  Mo  Mo1  1  1.88831000  1.87570000  -0.08746550  1
  Mo  Mo2  1  1.78709000  7.14060000  1.78851000  1
  Mo  Mo3  1  7.34115000  1.77854000  1.77422000  1
  Mo  Mo4  1  3.52923000  7.43160000  3.67146000  1
  Mo  Mo5  1  5.54239000  1.66691000  0.11376100  1
  Mo  Mo6  1  5.46384000  7.36212000  1.88524000  1
  Mo  Mo7  1  3.66118000  1.85445000  1.81116000  1
  Mo  Mo8  1  7.34922000  3.57136000  3.65879000  1
  Mo  Mo9  1  1.72660000  5.49470000  0.05959690  1
  Mo  Mo10  1  1.70563000  3.78407000  1.76802000  1
  Mo  Mo11  1  7.18888000  5.46198000  1.81540000  1
  Mo  Mo12  1  3.70448000  3.58700000  0.03761930  1
  Mo  Mo13  1  5.36766000  5.45164000  3.67065000  1
  Mo  Mo14  1  5.69737000  3.55887000  1.77870000  1
  Mo  Mo15  1  3.70528000  5.48893000  1.89379000  1
