# generated using pymatgen
data_Mo
_symmetry_space_group_name_H-M   'P 1'
_cell_length_a   7.29789726
_cell_length_b   7.29789726
_cell_length_c   3.64894867
_cell_angle_alpha   90.00000000
_cell_angle_beta   90.00000000
_cell_angle_gamma   90.00000000
_symmetry_Int_Tables_number   1
_chemical_formula_structural   Mo
_chemical_formula_sum   Mo16
_cell_volume   194.34046797
_cell_formula_units_Z   16
loop_
 _symmetry_equiv_pos_site_id
 _symmetry_equiv_pos_as_xyz
  1  'x, y, z'
loop_
 _atom_site_type_symbol
 _atom_site_label
 _atom_site_symmetry_multiplicity
 _atom_site_fract_x
 _atom_site_fract_y
 _atom_site_fract_z
 _atom_site_occupancy
  Mo  Mo0  1  7.36332000  0.11963500  0.03893610  1
  Mo  Mo1  1  1.91980000  1.98422000  -0.00644093  1
  Mo  Mo2  1  1.85882000  7.44131000  1.89490000  1
  Mo  Mo3  1  7.18849000  1.80752000  1.85681000  1
  Mo  Mo4  1  3.66513000  7.15195000  3.60097000  1
  Mo  Mo5  1  5.37573000  1.72079000  -0.02602750  1
  Mo  Mo6  1  5.40025000  7.07928000  1.79944000  1
  Mo  Mo7  1  3.70978000  1.65513000  1.77678000  1
  Mo  Mo8  1  7.29015000  3.61130000  3.66841000  1
  Mo  Mo9  1  1.69421000  5.43566000  0.02086400  1
  Mo  Mo10  1  1.93277000  3.77123000  1.82273000  1
  Mo  Mo11  1  7.36089000  5.62211000  1.75952000  1
  Mo  Mo12  1  3.50512000  3.63969000  -0.01533260  1
  Mo  Mo13  1  5.54041000  5.30165000  3.55550000  1
  Mo  Mo14  1  5.42631000  3.79694000  1.86108000  1
  Mo  Mo15  1  3.58861000  5.38348000  1.85492000  1
