# generated using pymatgen
data_Mo
_symmetry_space_group_name_H-M   'P 1'
_cell_length_a   7.29789726
_cell_length_b   7.29789726
_cell_length_c   3.64894867
_cell_angle_alpha   90.00000000
_cell_angle_beta   90.00000000
_cell_angle_gamma   90.00000000
_symmetry_Int_Tables_number   1
_chemical_formula_structural   Mo
_chemical_formula_sum   Mo16
_cell_volume   194.34046797
_cell_formula_units_Z   16
loop_
 _symmetry_equiv_pos_site_id
 _symmetry_equiv_pos_as_xyz
  1  'x, y, z'
loop_
 _atom_site_type_symbol
 _atom_site_label
 _atom_site_symmetry_multiplicity
 _atom_site_fract_x
 _atom_site_fract_y
 _atom_site_fract_z
 _atom_site_occupancy
  Mo  Mo0  1  7.34353000  -0.03746330  0.10483600  1
  Mo  Mo1  1  1.84832000  1.96369000  0.06542980  1
  Mo  Mo2  1  1.78666000  7.31403000  1.87722000  1
  Mo  Mo3  1  7.27271000  1.88981000  1.85471000  1
  Mo  Mo4  1  3.59093000  7.40699000  3.61292000  1
  Mo  Mo5  1  5.47285000  1.60037000  -0.05391200  1
  Mo  Mo6  1  5.55732000  7.29321000  1.86408000  1
  Mo  Mo7  1  3.65741000  1.75596000  1.79910000  1
  Mo  Mo8  1  7.14934000  3.61123000  3.55147000  1
  Mo  Mo9  1  1.92630000  5.48425000  -0.00613402  1
  Mo  Mo10  1  1.69031000  3.64628000  1.72170000  1
  Mo  Mo11  1  7.25879000  5.42709000  1.78669000  1
  Mo  Mo12  1  3.64177000  3.55611000  0.01805370  1
  Mo  Mo13  1  5.43475000  5.57325000  3.70095000  1
  Mo  Mo14  1  5.53763000  3.56427000  1.79659000  1
  Mo  Mo15  1  3.65119000  5.47283000  1.76935000  1
