# generated using pymatgen
data_Mo
_symmetry_space_group_name_H-M   'P 1'
_cell_length_a   7.29789726
_cell_length_b   7.29789726
_cell_length_c   3.64894867
_cell_angle_alpha   90.00000000
_cell_angle_beta   90.00000000
_cell_angle_gamma   90.00000000
_symmetry_Int_Tables_number   1
_chemical_formula_structural   Mo
_chemical_formula_sum   Mo16
_cell_volume   194.34046797
_cell_formula_units_Z   16
loop_
 _symmetry_equiv_pos_site_id
 _symmetry_equiv_pos_as_xyz
  1  'x, y, z'
loop_
 _atom_site_type_symbol
 _atom_site_label
 _atom_site_symmetry_multiplicity
 _atom_site_fract_x
 _atom_site_fract_y
 _atom_site_fract_z
 _atom_site_occupancy
  Mo  Mo0  1  7.19248000  0.05971310  0.06550870  1
  Mo  Mo1  1  1.93238000  1.86295000  -0.16724900  1
  Mo  Mo2  1  1.91842000  7.22362000  1.78826000  1
  Mo  Mo3  1  7.47616000  1.77717000  1.85088000  1
  Mo  Mo4  1  3.58545000  7.21938000  3.58225000  1
  Mo  Mo5  1  5.44825000  1.78096000  -0.10615200  1
  Mo  Mo6  1  5.42120000  7.37769000  1.95275000  1
  Mo  Mo7  1  3.59733000  1.77345000  1.72486000  1
  Mo  Mo8  1  7.24857000  3.59799000  3.63603000  1
  Mo  Mo9  1  1.78581000  5.46223000  0.06939520  1
  Mo  Mo10  1  1.64538000  3.71436000  1.75298000  1
  Mo  Mo11  1  7.21629000  5.75557000  1.93316000  1
  Mo  Mo12  1  3.71161000  3.71342000  -0.00191292  1
  Mo  Mo13  1  5.53511000  5.45386000  3.71969000  1
  Mo  Mo14  1  5.46911000  3.37368000  1.79837000  1
  Mo  Mo15  1  3.63623000  5.37587000  1.86422000  1
