# generated using pymatgen
data_Mo
_symmetry_space_group_name_H-M   'P 1'
_cell_length_a   7.29789726
_cell_length_b   7.29789726
_cell_length_c   3.64894867
_cell_angle_alpha   90.00000000
_cell_angle_beta   90.00000000
_cell_angle_gamma   90.00000000
_symmetry_Int_Tables_number   1
_chemical_formula_structural   Mo
_chemical_formula_sum   Mo16
_cell_volume   194.34046797
_cell_formula_units_Z   16
loop_
 _symmetry_equiv_pos_site_id
 _symmetry_equiv_pos_as_xyz
  1  'x, y, z'
loop_
 _atom_site_type_symbol
 _atom_site_label
 _atom_site_symmetry_multiplicity
 _atom_site_fract_x
 _atom_site_fract_y
 _atom_site_fract_z
 _atom_site_occupancy
  Mo  Mo0  1  7.20707000  0.04871070  0.03684060  1
  Mo  Mo1  1  1.83381000  1.69248000  -0.00862988  1
  Mo  Mo2  1  1.96866000  7.19788000  1.86234000  1
  Mo  Mo3  1  7.20490000  1.84303000  1.88996000  1
  Mo  Mo4  1  3.70103000  7.23097000  3.74134000  1
  Mo  Mo5  1  5.49929000  1.80971000  0.10102500  1
  Mo  Mo6  1  5.45093000  7.31250000  1.87498000  1
  Mo  Mo7  1  3.56476000  1.81873000  1.79832000  1
  Mo  Mo8  1  7.36102000  3.61651000  3.70660000  1
  Mo  Mo9  1  1.79784000  5.62382000  0.02829800  1
  Mo  Mo10  1  1.82403000  3.63413000  1.68535000  1
  Mo  Mo11  1  7.28434000  5.65494000  1.72807000  1
  Mo  Mo12  1  3.60090000  3.67966000  -0.11180100  1
  Mo  Mo13  1  5.43055000  5.28820000  3.53990000  1
  Mo  Mo14  1  5.52907000  3.64447000  1.80179000  1
  Mo  Mo15  1  3.56159000  5.42615000  1.78868000  1
