# generated using pymatgen
data_Mo
_symmetry_space_group_name_H-M   'P 1'
_cell_length_a   7.29789726
_cell_length_b   7.29789726
_cell_length_c   3.64894867
_cell_angle_alpha   90.00000000
_cell_angle_beta   90.00000000
_cell_angle_gamma   90.00000000
_symmetry_Int_Tables_number   1
_chemical_formula_structural   Mo
_chemical_formula_sum   Mo16
_cell_volume   194.34046797
_cell_formula_units_Z   16
loop_
 _symmetry_equiv_pos_site_id
 _symmetry_equiv_pos_as_xyz
  1  'x, y, z'
loop_
 _atom_site_type_symbol
 _atom_site_label
 _atom_site_symmetry_multiplicity
 _atom_site_fract_x
 _atom_site_fract_y
 _atom_site_fract_z
 _atom_site_occupancy
  Mo  Mo0  1  7.23521000  -0.07243740  -0.10874800  1
  Mo  Mo1  1  1.77546000  1.73697000  -0.02318080  1
  Mo  Mo2  1  1.79023000  7.30219000  1.83070000  1
  Mo  Mo3  1  7.29918000  1.87007000  1.71724000  1
  Mo  Mo4  1  3.75075000  7.24972000  3.59853000  1
  Mo  Mo5  1  5.50813000  1.77970000  -0.02246020  1
  Mo  Mo6  1  5.60619000  7.26244000  1.88005000  1
  Mo  Mo7  1  3.61024000  1.73373000  1.77856000  1
  Mo  Mo8  1  7.47104000  3.82397000  3.69121000  1
  Mo  Mo9  1  1.75449000  5.54549000  0.04990500  1
  Mo  Mo10  1  1.94465000  3.64550000  1.89314000  1
  Mo  Mo11  1  7.24021000  5.41461000  1.81312000  1
  Mo  Mo12  1  3.54260000  3.69164000  -0.02699440  1
  Mo  Mo13  1  5.40061000  5.39767000  3.75311000  1
  Mo  Mo14  1  5.31657000  3.56174000  1.88663000  1
  Mo  Mo15  1  3.57423000  5.57890000  1.75222000  1
