# generated using pymatgen
data_Mo
_symmetry_space_group_name_H-M   'P 1'
_cell_length_a   7.29789726
_cell_length_b   7.29789726
_cell_length_c   3.64894867
_cell_angle_alpha   90.00000000
_cell_angle_beta   90.00000000
_cell_angle_gamma   90.00000000
_symmetry_Int_Tables_number   1
_chemical_formula_structural   Mo
_chemical_formula_sum   Mo16
_cell_volume   194.34046797
_cell_formula_units_Z   16
loop_
 _symmetry_equiv_pos_site_id
 _symmetry_equiv_pos_as_xyz
  1  'x, y, z'
loop_
 _atom_site_type_symbol
 _atom_site_label
 _atom_site_symmetry_multiplicity
 _atom_site_fract_x
 _atom_site_fract_y
 _atom_site_fract_z
 _atom_site_occupancy
  Mo  Mo0  1  7.28480000  0.11281200  0.05435230  1
  Mo  Mo1  1  1.77722000  1.91826000  -0.01169680  1
  Mo  Mo2  1  1.92309000  7.41607000  1.90871000  1
  Mo  Mo3  1  7.32023000  1.80974000  1.91141000  1
  Mo  Mo4  1  3.46221000  7.11953000  3.66401000  1
  Mo  Mo5  1  5.41025000  1.74947000  -0.01992380  1
  Mo  Mo6  1  5.35748000  7.04341000  1.85023000  1
  Mo  Mo7  1  3.71382000  1.77166000  1.91570000  1
  Mo  Mo8  1  7.29505000  3.75227000  3.65563000  1
  Mo  Mo9  1  1.74659000  5.51953000  -0.02590540  1
  Mo  Mo10  1  1.81830000  3.50529000  1.74513000  1
  Mo  Mo11  1  7.38325000  5.53033000  1.69904000  1
  Mo  Mo12  1  3.73313000  3.66275000  0.00353153  1
  Mo  Mo13  1  5.59205000  5.53061000  3.51982000  1
  Mo  Mo14  1  5.48152000  3.72463000  1.74515000  1
  Mo  Mo15  1  3.52082000  5.35554000  1.84785000  1
