# generated using pymatgen
data_Mo
_symmetry_space_group_name_H-M   'P 1'
_cell_length_a   7.29789726
_cell_length_b   7.29789726
_cell_length_c   3.64894867
_cell_angle_alpha   90.00000000
_cell_angle_beta   90.00000000
_cell_angle_gamma   90.00000000
_symmetry_Int_Tables_number   1
_chemical_formula_structural   Mo
_chemical_formula_sum   Mo16
_cell_volume   194.34046797
_cell_formula_units_Z   16
loop_
 _symmetry_equiv_pos_site_id
 _symmetry_equiv_pos_as_xyz
  1  'x, y, z'
loop_
 _atom_site_type_symbol
 _atom_site_label
 _atom_site_symmetry_multiplicity
 _atom_site_fract_x
 _atom_site_fract_y
 _atom_site_fract_z
 _atom_site_occupancy
  Mo  Mo0  1  7.20258000  -0.03082360  -0.03604080  1
  Mo  Mo1  1  1.82614000  1.72126000  -0.02955550  1
  Mo  Mo2  1  1.75699000  7.32121000  1.77504000  1
  Mo  Mo3  1  7.52460000  1.79525000  1.77440000  1
  Mo  Mo4  1  3.73653000  7.39334000  3.63435000  1
  Mo  Mo5  1  5.60872000  1.72181000  -0.00670125  1
  Mo  Mo6  1  5.52951000  7.34533000  1.75087000  1
  Mo  Mo7  1  3.58303000  1.79653000  1.89940000  1
  Mo  Mo8  1  7.16524000  3.71709000  3.61169000  1
  Mo  Mo9  1  1.84501000  5.45280000  0.05407960  1
  Mo  Mo10  1  1.81173000  3.74771000  1.80740000  1
  Mo  Mo11  1  7.19440000  5.46022000  1.75683000  1
  Mo  Mo12  1  3.61153000  3.46813000  0.05978060  1
  Mo  Mo13  1  5.42609000  5.53782000  3.68746000  1
  Mo  Mo14  1  5.40710000  3.50572000  1.85569000  1
  Mo  Mo15  1  3.59061000  5.56849000  1.86835000  1
