# generated using pymatgen
data_Mo
_symmetry_space_group_name_H-M   'P 1'
_cell_length_a   7.29789726
_cell_length_b   7.29789726
_cell_length_c   3.64894867
_cell_angle_alpha   90.00000000
_cell_angle_beta   90.00000000
_cell_angle_gamma   90.00000000
_symmetry_Int_Tables_number   1
_chemical_formula_structural   Mo
_chemical_formula_sum   Mo16
_cell_volume   194.34046797
_cell_formula_units_Z   16
loop_
 _symmetry_equiv_pos_site_id
 _symmetry_equiv_pos_as_xyz
  1  'x, y, z'
loop_
 _atom_site_type_symbol
 _atom_site_label
 _atom_site_symmetry_multiplicity
 _atom_site_fract_x
 _atom_site_fract_y
 _atom_site_fract_z
 _atom_site_occupancy
  Mo  Mo0  1  7.32520000  0.19483100  -0.10161200  1
  Mo  Mo1  1  1.95313000  1.77350000  0.11338100  1
  Mo  Mo2  1  1.95619000  7.19436000  1.81763000  1
  Mo  Mo3  1  7.30061000  1.68527000  1.68524000  1
  Mo  Mo4  1  3.66162000  7.30180000  3.67184000  1
  Mo  Mo5  1  5.46101000  1.82478000  -0.11053300  1
  Mo  Mo6  1  5.49803000  7.29362000  1.77367000  1
  Mo  Mo7  1  3.53882000  1.85034000  1.91808000  1
  Mo  Mo8  1  7.15344000  3.44435000  3.69858000  1
  Mo  Mo9  1  1.71734000  5.33898000  -0.04695470  1
  Mo  Mo10  1  1.75639000  3.66733000  1.91682000  1
  Mo  Mo11  1  7.16052000  5.54908000  1.80001000  1
  Mo  Mo12  1  3.65385000  3.65403000  0.00139584  1
  Mo  Mo13  1  5.46064000  5.53740000  3.55966000  1
  Mo  Mo14  1  5.46701000  3.67727000  1.87445000  1
  Mo  Mo15  1  3.75600000  5.53495000  1.89138000  1
