# generated using pymatgen
data_Mo
_symmetry_space_group_name_H-M   'P 1'
_cell_length_a   7.29789726
_cell_length_b   7.29789726
_cell_length_c   3.64894867
_cell_angle_alpha   90.00000000
_cell_angle_beta   90.00000000
_cell_angle_gamma   90.00000000
_symmetry_Int_Tables_number   1
_chemical_formula_structural   Mo
_chemical_formula_sum   Mo16
_cell_volume   194.34046797
_cell_formula_units_Z   16
loop_
 _symmetry_equiv_pos_site_id
 _symmetry_equiv_pos_as_xyz
  1  'x, y, z'
loop_
 _atom_site_type_symbol
 _atom_site_label
 _atom_site_symmetry_multiplicity
 _atom_site_fract_x
 _atom_site_fract_y
 _atom_site_fract_z
 _atom_site_occupancy
  Mo  Mo0  1  7.36792000  0.07490420  0.17152300  1
  Mo  Mo1  1  1.61289000  1.87876000  0.11883000  1
  Mo  Mo2  1  1.90406000  7.25044000  1.89908000  1
  Mo  Mo3  1  7.20278000  1.88014000  1.93735000  1
  Mo  Mo4  1  3.60699000  7.40372000  3.57536000  1
  Mo  Mo5  1  5.55043000  1.76064000  -0.07652710  1
  Mo  Mo6  1  5.54903000  7.29763000  1.87599000  1
  Mo  Mo7  1  3.60820000  1.66539000  1.72228000  1
  Mo  Mo8  1  7.22155000  3.74435000  3.61878000  1
  Mo  Mo9  1  1.80077000  5.34745000  -0.05059430  1
  Mo  Mo10  1  1.88878000  3.46613000  1.77129000  1
  Mo  Mo11  1  7.34012000  5.45625000  1.96105000  1
  Mo  Mo12  1  3.66990000  3.52141000  -0.12911700  1
  Mo  Mo13  1  5.44662000  5.54599000  3.55967000  1
  Mo  Mo14  1  5.33987000  3.71478000  1.77941000  1
  Mo  Mo15  1  3.70989000  5.51391000  1.72867000  1
