# generated using pymatgen
data_Mo
_symmetry_space_group_name_H-M   'P 1'
_cell_length_a   7.29789726
_cell_length_b   7.29789726
_cell_length_c   3.64894867
_cell_angle_alpha   90.00000000
_cell_angle_beta   90.00000000
_cell_angle_gamma   90.00000000
_symmetry_Int_Tables_number   1
_chemical_formula_structural   Mo
_chemical_formula_sum   Mo16
_cell_volume   194.34046797
_cell_formula_units_Z   16
loop_
 _symmetry_equiv_pos_site_id
 _symmetry_equiv_pos_as_xyz
  1  'x, y, z'
loop_
 _atom_site_type_symbol
 _atom_site_label
 _atom_site_symmetry_multiplicity
 _atom_site_fract_x
 _atom_site_fract_y
 _atom_site_fract_z
 _atom_site_occupancy
  Mo  Mo0  1  7.15373000  -0.14194400  0.04858820  1
  Mo  Mo1  1  1.85090000  1.75421000  0.02115100  1
  Mo  Mo2  1  1.86268000  7.25158000  1.99030000  1
  Mo  Mo3  1  7.34602000  1.72562000  1.82435000  1
  Mo  Mo4  1  3.74083000  7.26448000  3.65593000  1
  Mo  Mo5  1  5.46032000  1.85251000  0.00704705  1
  Mo  Mo6  1  5.54306000  7.33955000  1.83744000  1
  Mo  Mo7  1  3.53575000  1.90183000  1.78738000  1
  Mo  Mo8  1  7.34814000  3.68603000  3.57578000  1
  Mo  Mo9  1  1.82153000  5.55540000  -0.00271030  1
  Mo  Mo10  1  1.83297000  3.64590000  1.83159000  1
  Mo  Mo11  1  7.32613000  5.40129000  1.83264000  1
  Mo  Mo12  1  3.49942000  3.64177000  -0.04089500  1
  Mo  Mo13  1  5.41835000  5.39076000  3.62034000  1
  Mo  Mo14  1  5.33128000  3.62597000  1.64191000  1
  Mo  Mo15  1  3.74866000  5.62694000  1.83221000  1
