# generated using pymatgen
data_Mo
_symmetry_space_group_name_H-M   'P 1'
_cell_length_a   7.29789726
_cell_length_b   7.29789726
_cell_length_c   3.64894867
_cell_angle_alpha   90.00000000
_cell_angle_beta   90.00000000
_cell_angle_gamma   90.00000000
_symmetry_Int_Tables_number   1
_chemical_formula_structural   Mo
_chemical_formula_sum   Mo16
_cell_volume   194.34046797
_cell_formula_units_Z   16
loop_
 _symmetry_equiv_pos_site_id
 _symmetry_equiv_pos_as_xyz
  1  'x, y, z'
loop_
 _atom_site_type_symbol
 _atom_site_label
 _atom_site_symmetry_multiplicity
 _atom_site_fract_x
 _atom_site_fract_y
 _atom_site_fract_z
 _atom_site_occupancy
  Mo  Mo0  1  7.10210000  -0.06653930  0.09994600  1
  Mo  Mo1  1  1.72582000  1.78179000  -0.03876000  1
  Mo  Mo2  1  1.63148000  7.28187000  1.85471000  1
  Mo  Mo3  1  7.28160000  1.78567000  1.75727000  1
  Mo  Mo4  1  3.70075000  7.36114000  3.75129000  1
  Mo  Mo5  1  5.33295000  1.82177000  -0.01549650  1
  Mo  Mo6  1  5.38666000  7.19038000  1.75508000  1
  Mo  Mo7  1  3.56462000  1.69274000  1.92129000  1
  Mo  Mo8  1  7.47921000  3.66211000  3.60867000  1
  Mo  Mo9  1  1.93067000  5.59219000  -0.04669380  1
  Mo  Mo10  1  1.95735000  3.80989000  1.67400000  1
  Mo  Mo11  1  7.37083000  5.43302000  1.88982000  1
  Mo  Mo12  1  3.54778000  3.66419000  -0.07486460  1
  Mo  Mo13  1  5.56866000  5.41209000  3.62335000  1
  Mo  Mo14  1  5.46871000  3.65224000  1.86185000  1
  Mo  Mo15  1  3.77061000  5.44736000  1.84160000  1
