# generated using pymatgen
data_Mo
_symmetry_space_group_name_H-M   'P 1'
_cell_length_a   7.29789726
_cell_length_b   7.29789726
_cell_length_c   3.64894867
_cell_angle_alpha   90.00000000
_cell_angle_beta   90.00000000
_cell_angle_gamma   90.00000000
_symmetry_Int_Tables_number   1
_chemical_formula_structural   Mo
_chemical_formula_sum   Mo16
_cell_volume   194.34046797
_cell_formula_units_Z   16
loop_
 _symmetry_equiv_pos_site_id
 _symmetry_equiv_pos_as_xyz
  1  'x, y, z'
loop_
 _atom_site_type_symbol
 _atom_site_label
 _atom_site_symmetry_multiplicity
 _atom_site_fract_x
 _atom_site_fract_y
 _atom_site_fract_z
 _atom_site_occupancy
  Mo  Mo0  1  7.35823000  -0.09699810  0.01225860  1
  Mo  Mo1  1  1.67013000  1.91813000  -0.02419650  1
  Mo  Mo2  1  1.84035000  7.20018000  1.77855000  1
  Mo  Mo3  1  7.44017000  1.73926000  1.79794000  1
  Mo  Mo4  1  3.59258000  7.45703000  3.62020000  1
  Mo  Mo5  1  5.43270000  1.72211000  -0.07183560  1
  Mo  Mo6  1  5.52838000  7.38151000  1.82602000  1
  Mo  Mo7  1  3.67274000  1.79688000  1.81515000  1
  Mo  Mo8  1  7.33081000  3.68575000  3.61909000  1
  Mo  Mo9  1  1.80966000  5.54184000  -0.11397300  1
  Mo  Mo10  1  1.83698000  3.58928000  1.77167000  1
  Mo  Mo11  1  7.08106000  5.56152000  1.80408000  1
  Mo  Mo12  1  3.51446000  3.52958000  0.18442900  1
  Mo  Mo13  1  5.41369000  5.47137000  3.70280000  1
  Mo  Mo14  1  5.49768000  3.52673000  1.91947000  1
  Mo  Mo15  1  3.80020000  5.49773000  1.82140000  1
