# generated using pymatgen
data_Mo
_symmetry_space_group_name_H-M   'P 1'
_cell_length_a   7.29789726
_cell_length_b   7.29789726
_cell_length_c   3.64894867
_cell_angle_alpha   90.00000000
_cell_angle_beta   90.00000000
_cell_angle_gamma   90.00000000
_symmetry_Int_Tables_number   1
_chemical_formula_structural   Mo
_chemical_formula_sum   Mo16
_cell_volume   194.34046797
_cell_formula_units_Z   16
loop_
 _symmetry_equiv_pos_site_id
 _symmetry_equiv_pos_as_xyz
  1  'x, y, z'
loop_
 _atom_site_type_symbol
 _atom_site_label
 _atom_site_symmetry_multiplicity
 _atom_site_fract_x
 _atom_site_fract_y
 _atom_site_fract_z
 _atom_site_occupancy
  Mo  Mo0  1  7.23376000  -0.09239710  -0.13201700  1
  Mo  Mo1  1  1.68647000  1.78811000  0.09543020  1
  Mo  Mo2  1  1.90599000  7.31042000  1.77777000  1
  Mo  Mo3  1  7.25484000  1.71509000  1.66070000  1
  Mo  Mo4  1  3.58635000  7.37158000  3.71014000  1
  Mo  Mo5  1  5.41725000  1.86482000  -0.06450400  1
  Mo  Mo6  1  5.47923000  7.34135000  1.88111000  1
  Mo  Mo7  1  3.60915000  1.86146000  1.82879000  1
  Mo  Mo8  1  7.48717000  3.77919000  3.55377000  1
  Mo  Mo9  1  1.81171000  5.54453000  0.15326400  1
  Mo  Mo10  1  1.86112000  3.55931000  1.82412000  1
  Mo  Mo11  1  7.31233000  5.45201000  1.83658000  1
  Mo  Mo12  1  3.54683000  3.54395000  -0.06038320  1
  Mo  Mo13  1  5.45967000  5.48897000  3.62009000  1
  Mo  Mo14  1  5.43904000  3.58129000  1.89197000  1
  Mo  Mo15  1  3.72888000  5.41223000  1.88622000  1
