# generated using pymatgen
data_Mo
_symmetry_space_group_name_H-M   'P 1'
_cell_length_a   7.29789726
_cell_length_b   7.29789726
_cell_length_c   3.64894867
_cell_angle_alpha   90.00000000
_cell_angle_beta   90.00000000
_cell_angle_gamma   90.00000000
_symmetry_Int_Tables_number   1
_chemical_formula_structural   Mo
_chemical_formula_sum   Mo16
_cell_volume   194.34046797
_cell_formula_units_Z   16
loop_
 _symmetry_equiv_pos_site_id
 _symmetry_equiv_pos_as_xyz
  1  'x, y, z'
loop_
 _atom_site_type_symbol
 _atom_site_label
 _atom_site_symmetry_multiplicity
 _atom_site_fract_x
 _atom_site_fract_y
 _atom_site_fract_z
 _atom_site_occupancy
  Mo  Mo0  1  7.40178000  0.12589100  0.01042960  1
  Mo  Mo1  1  1.87181000  1.86554000  0.05793600  1
  Mo  Mo2  1  1.86783000  7.22956000  1.71935000  1
  Mo  Mo3  1  7.41613000  1.72194000  1.81617000  1
  Mo  Mo4  1  3.68733000  7.14360000  3.60142000  1
  Mo  Mo5  1  5.38653000  1.82610000  -0.07497980  1
  Mo  Mo6  1  5.37458000  7.36990000  1.81115000  1
  Mo  Mo7  1  3.66116000  1.88066000  1.72654000  1
  Mo  Mo8  1  7.20606000  3.55804000  3.66474000  1
  Mo  Mo9  1  1.68302000  5.59300000  0.06116720  1
  Mo  Mo10  1  1.78252000  3.58549000  1.86776000  1
  Mo  Mo11  1  7.14806000  5.45488000  1.90294000  1
  Mo  Mo12  1  3.60614000  3.69103000  -0.03194590  1
  Mo  Mo13  1  5.47137000  5.61416000  3.65465000  1
  Mo  Mo14  1  5.52715000  3.50618000  1.90134000  1
  Mo  Mo15  1  3.72832000  5.35592000  1.77440000  1
