# generated using pymatgen
data_Mo
_symmetry_space_group_name_H-M   'P 1'
_cell_length_a   7.29789726
_cell_length_b   7.29789726
_cell_length_c   3.64894867
_cell_angle_alpha   90.00000000
_cell_angle_beta   90.00000000
_cell_angle_gamma   90.00000000
_symmetry_Int_Tables_number   1
_chemical_formula_structural   Mo
_chemical_formula_sum   Mo16
_cell_volume   194.34046797
_cell_formula_units_Z   16
loop_
 _symmetry_equiv_pos_site_id
 _symmetry_equiv_pos_as_xyz
  1  'x, y, z'
loop_
 _atom_site_type_symbol
 _atom_site_label
 _atom_site_symmetry_multiplicity
 _atom_site_fract_x
 _atom_site_fract_y
 _atom_site_fract_z
 _atom_site_occupancy
  Mo  Mo0  1  7.23085000  -0.03311060  0.03290860  1
  Mo  Mo1  1  1.82017000  1.75178000  0.03848710  1
  Mo  Mo2  1  1.89945000  7.08714000  1.88442000  1
  Mo  Mo3  1  7.41559000  1.72912000  1.84022000  1
  Mo  Mo4  1  3.72560000  7.33676000  3.61191000  1
  Mo  Mo5  1  5.34141000  1.77334000  -0.05266690  1
  Mo  Mo6  1  5.50036000  7.56596000  1.81656000  1
  Mo  Mo7  1  3.43713000  1.83525000  1.81800000  1
  Mo  Mo8  1  7.24106000  3.66838000  3.57818000  1
  Mo  Mo9  1  1.80309000  5.50252000  -0.10435400  1
  Mo  Mo10  1  1.72694000  3.61630000  1.72864000  1
  Mo  Mo11  1  7.18583000  5.56196000  1.89510000  1
  Mo  Mo12  1  3.59499000  3.68649000  0.05978280  1
  Mo  Mo13  1  5.47948000  5.43397000  3.65054000  1
  Mo  Mo14  1  5.58152000  3.59226000  1.80361000  1
  Mo  Mo15  1  3.83633000  5.41380000  1.86171000  1
