# generated using pymatgen
data_Mo
_symmetry_space_group_name_H-M   'P 1'
_cell_length_a   7.29789726
_cell_length_b   7.29789726
_cell_length_c   3.64894867
_cell_angle_alpha   90.00000000
_cell_angle_beta   90.00000000
_cell_angle_gamma   90.00000000
_symmetry_Int_Tables_number   1
_chemical_formula_structural   Mo
_chemical_formula_sum   Mo16
_cell_volume   194.34046797
_cell_formula_units_Z   16
loop_
 _symmetry_equiv_pos_site_id
 _symmetry_equiv_pos_as_xyz
  1  'x, y, z'
loop_
 _atom_site_type_symbol
 _atom_site_label
 _atom_site_symmetry_multiplicity
 _atom_site_fract_x
 _atom_site_fract_y
 _atom_site_fract_z
 _atom_site_occupancy
  Mo  Mo0  1  7.28196000  -0.06653520  -0.02292750  1
  Mo  Mo1  1  1.73581000  1.80083000  -0.00421416  1
  Mo  Mo2  1  1.82434000  7.13602000  1.85424000  1
  Mo  Mo3  1  7.32848000  1.90068000  1.79200000  1
  Mo  Mo4  1  3.82816000  7.41730000  3.67446000  1
  Mo  Mo5  1  5.51959000  1.85552000  -0.14203900  1
  Mo  Mo6  1  5.57660000  7.24835000  1.72572000  1
  Mo  Mo7  1  3.58977000  1.86799000  1.80994000  1
  Mo  Mo8  1  7.39188000  3.66120000  3.76301000  1
  Mo  Mo9  1  1.67281000  5.44042000  0.01336000  1
  Mo  Mo10  1  1.94301000  3.76082000  1.76417000  1
  Mo  Mo11  1  7.11448000  5.42006000  1.88478000  1
  Mo  Mo12  1  3.57729000  3.56460000  0.04652290  1
  Mo  Mo13  1  5.44667000  5.52017000  3.62852000  1
  Mo  Mo14  1  5.29685000  3.53318000  1.78595000  1
  Mo  Mo15  1  3.69208000  5.46128000  1.88956000  1
