# generated using pymatgen
data_Mo
_symmetry_space_group_name_H-M   'P 1'
_cell_length_a   7.29789726
_cell_length_b   7.29789726
_cell_length_c   3.64894867
_cell_angle_alpha   90.00000000
_cell_angle_beta   90.00000000
_cell_angle_gamma   90.00000000
_symmetry_Int_Tables_number   1
_chemical_formula_structural   Mo
_chemical_formula_sum   Mo16
_cell_volume   194.34046797
_cell_formula_units_Z   16
loop_
 _symmetry_equiv_pos_site_id
 _symmetry_equiv_pos_as_xyz
  1  'x, y, z'
loop_
 _atom_site_type_symbol
 _atom_site_label
 _atom_site_symmetry_multiplicity
 _atom_site_fract_x
 _atom_site_fract_y
 _atom_site_fract_z
 _atom_site_occupancy
  Mo  Mo0  1  7.23776000  0.02570390  0.07936700  1
  Mo  Mo1  1  1.73576000  1.66774000  0.02928710  1
  Mo  Mo2  1  1.79449000  7.29369000  1.91750000  1
  Mo  Mo3  1  7.24180000  1.75737000  1.77874000  1
  Mo  Mo4  1  3.52335000  7.31069000  3.49272000  1
  Mo  Mo5  1  5.40939000  1.89729000  -0.04939320  1
  Mo  Mo6  1  5.46074000  7.40690000  1.75899000  1
  Mo  Mo7  1  3.61065000  1.74889000  1.85072000  1
  Mo  Mo8  1  7.44451000  3.57620000  3.63965000  1
  Mo  Mo9  1  1.90530000  5.49143000  0.03471530  1
  Mo  Mo10  1  1.76619000  3.76665000  1.82192000  1
  Mo  Mo11  1  7.21524000  5.38453000  1.85580000  1
  Mo  Mo12  1  3.65250000  3.63001000  -0.08956580  1
  Mo  Mo13  1  5.43584000  5.43695000  3.69839000  1
  Mo  Mo14  1  5.59188000  3.51343000  1.83629000  1
  Mo  Mo15  1  3.79440000  5.61442000  1.80791000  1
