# generated using pymatgen
data_Mo
_symmetry_space_group_name_H-M   'P 1'
_cell_length_a   7.29789726
_cell_length_b   7.29789726
_cell_length_c   3.64894867
_cell_angle_alpha   90.00000000
_cell_angle_beta   90.00000000
_cell_angle_gamma   90.00000000
_symmetry_Int_Tables_number   1
_chemical_formula_structural   Mo
_chemical_formula_sum   Mo16
_cell_volume   194.34046797
_cell_formula_units_Z   16
loop_
 _symmetry_equiv_pos_site_id
 _symmetry_equiv_pos_as_xyz
  1  'x, y, z'
loop_
 _atom_site_type_symbol
 _atom_site_label
 _atom_site_symmetry_multiplicity
 _atom_site_fract_x
 _atom_site_fract_y
 _atom_site_fract_z
 _atom_site_occupancy
  Mo  Mo0  1  7.18847000  0.01899720  -0.02014060  1
  Mo  Mo1  1  1.85721000  1.81037000  -0.01683800  1
  Mo  Mo2  1  1.74466000  7.31944000  1.72454000  1
  Mo  Mo3  1  7.43157000  1.78633000  1.84730000  1
  Mo  Mo4  1  3.60637000  7.19646000  3.61115000  1
  Mo  Mo5  1  5.43316000  1.88844000  -0.04962180  1
  Mo  Mo6  1  5.35805000  7.41135000  1.70809000  1
  Mo  Mo7  1  3.53458000  1.63523000  1.72572000  1
  Mo  Mo8  1  7.32116000  3.74613000  3.76730000  1
  Mo  Mo9  1  1.90362000  5.52315000  0.11163700  1
  Mo  Mo10  1  1.89125000  3.74610000  1.80871000  1
  Mo  Mo11  1  7.24765000  5.45351000  1.93185000  1
  Mo  Mo12  1  3.59385000  3.62397000  -0.01088090  1
  Mo  Mo13  1  5.44716000  5.40354000  3.60174000  1
  Mo  Mo14  1  5.40676000  3.57959000  1.84051000  1
  Mo  Mo15  1  3.85427000  5.37930000  1.88198000  1
