# generated using pymatgen
data_Mo
_symmetry_space_group_name_H-M   'P 1'
_cell_length_a   7.29789726
_cell_length_b   7.29789726
_cell_length_c   3.64894867
_cell_angle_alpha   90.00000000
_cell_angle_beta   90.00000000
_cell_angle_gamma   90.00000000
_symmetry_Int_Tables_number   1
_chemical_formula_structural   Mo
_chemical_formula_sum   Mo16
_cell_volume   194.34046797
_cell_formula_units_Z   16
loop_
 _symmetry_equiv_pos_site_id
 _symmetry_equiv_pos_as_xyz
  1  'x, y, z'
loop_
 _atom_site_type_symbol
 _atom_site_label
 _atom_site_symmetry_multiplicity
 _atom_site_fract_x
 _atom_site_fract_y
 _atom_site_fract_z
 _atom_site_occupancy
  Mo  Mo0  1  7.34211000  0.22452200  -0.04255780  1
  Mo  Mo1  1  1.89674000  1.80456000  -0.01135660  1
  Mo  Mo2  1  1.82171000  7.35131000  1.76845000  1
  Mo  Mo3  1  7.13921000  1.89006000  1.84926000  1
  Mo  Mo4  1  3.76361000  7.13820000  3.61211000  1
  Mo  Mo5  1  5.32316000  1.64849000  -0.03558220  1
  Mo  Mo6  1  5.46894000  7.24918000  1.70489000  1
  Mo  Mo7  1  3.76159000  1.76609000  1.82901000  1
  Mo  Mo8  1  7.26603000  3.59405000  3.73365000  1
  Mo  Mo9  1  1.77232000  5.51176000  0.14679300  1
  Mo  Mo10  1  1.75012000  3.53181000  1.81329000  1
  Mo  Mo11  1  7.40552000  5.50648000  1.73773000  1
  Mo  Mo12  1  3.80194000  3.65564000  0.03241660  1
  Mo  Mo13  1  5.58946000  5.51836000  3.58286000  1
  Mo  Mo14  1  5.28891000  3.70470000  1.91673000  1
  Mo  Mo15  1  3.42844000  5.42668000  1.82537000  1
