# generated using pymatgen
data_Mo
_symmetry_space_group_name_H-M   'P 1'
_cell_length_a   7.29789726
_cell_length_b   7.29789726
_cell_length_c   3.64894867
_cell_angle_alpha   90.00000000
_cell_angle_beta   90.00000000
_cell_angle_gamma   90.00000000
_symmetry_Int_Tables_number   1
_chemical_formula_structural   Mo
_chemical_formula_sum   Mo16
_cell_volume   194.34046797
_cell_formula_units_Z   16
loop_
 _symmetry_equiv_pos_site_id
 _symmetry_equiv_pos_as_xyz
  1  'x, y, z'
loop_
 _atom_site_type_symbol
 _atom_site_label
 _atom_site_symmetry_multiplicity
 _atom_site_fract_x
 _atom_site_fract_y
 _atom_site_fract_z
 _atom_site_occupancy
  Mo  Mo0  1  7.20963000  -0.19180800  -0.02793820  1
  Mo  Mo1  1  1.71060000  1.82822000  0.00268500  1
  Mo  Mo2  1  1.75701000  7.27703000  1.84601000  1
  Mo  Mo3  1  7.38154000  1.80525000  1.94854000  1
  Mo  Mo4  1  3.68969000  7.35165000  3.60431000  1
  Mo  Mo5  1  5.58036000  1.84767000  -0.07113580  1
  Mo  Mo6  1  5.39669000  7.31434000  1.82846000  1
  Mo  Mo7  1  3.68086000  1.77390000  1.77374000  1
  Mo  Mo8  1  7.49243000  3.63718000  3.82375000  1
  Mo  Mo9  1  1.85806000  5.50653000  0.02695090  1
  Mo  Mo10  1  1.98398000  3.82857000  1.92520000  1
  Mo  Mo11  1  7.05471000  5.41763000  1.80375000  1
  Mo  Mo12  1  3.53962000  3.55695000  0.02235810  1
  Mo  Mo13  1  5.34891000  5.38327000  3.58468000  1
  Mo  Mo14  1  5.40528000  3.57291000  1.65538000  1
  Mo  Mo15  1  3.73042000  5.61262000  1.71630000  1
