# generated using pymatgen
data_Mo
_symmetry_space_group_name_H-M   'P 1'
_cell_length_a   7.29789726
_cell_length_b   7.29789726
_cell_length_c   3.64894867
_cell_angle_alpha   90.00000000
_cell_angle_beta   90.00000000
_cell_angle_gamma   90.00000000
_symmetry_Int_Tables_number   1
_chemical_formula_structural   Mo
_chemical_formula_sum   Mo16
_cell_volume   194.34046797
_cell_formula_units_Z   16
loop_
 _symmetry_equiv_pos_site_id
 _symmetry_equiv_pos_as_xyz
  1  'x, y, z'
loop_
 _atom_site_type_symbol
 _atom_site_label
 _atom_site_symmetry_multiplicity
 _atom_site_fract_x
 _atom_site_fract_y
 _atom_site_fract_z
 _atom_site_occupancy
  Mo  Mo0  1  7.38529000  0.01296890  -0.05060540  1
  Mo  Mo1  1  1.71346000  1.74503000  0.03199210  1
  Mo  Mo2  1  1.73558000  7.19823000  1.76916000  1
  Mo  Mo3  1  7.15865000  1.91233000  1.74748000  1
  Mo  Mo4  1  3.74431000  7.44963000  3.64283000  1
  Mo  Mo5  1  5.48611000  1.70182000  -0.03831180  1
  Mo  Mo6  1  5.63089000  7.22794000  1.87614000  1
  Mo  Mo7  1  3.55311000  1.71387000  1.76366000  1
  Mo  Mo8  1  7.35994000  3.76573000  3.60453000  1
  Mo  Mo9  1  1.95425000  5.59068000  0.01768470  1
  Mo  Mo10  1  1.89572000  3.68281000  1.89862000  1
  Mo  Mo11  1  7.24883000  5.30543000  1.81138000  1
  Mo  Mo12  1  3.61106000  3.64861000  -0.08686440  1
  Mo  Mo13  1  5.35844000  5.29143000  3.75283000  1
  Mo  Mo14  1  5.33232000  3.63469000  1.83295000  1
  Mo  Mo15  1  3.65184000  5.64071000  1.88958000  1
