# generated using pymatgen
data_Mo
_symmetry_space_group_name_H-M   'P 1'
_cell_length_a   7.29789726
_cell_length_b   7.29789726
_cell_length_c   3.64894867
_cell_angle_alpha   90.00000000
_cell_angle_beta   90.00000000
_cell_angle_gamma   90.00000000
_symmetry_Int_Tables_number   1
_chemical_formula_structural   Mo
_chemical_formula_sum   Mo16
_cell_volume   194.34046797
_cell_formula_units_Z   16
loop_
 _symmetry_equiv_pos_site_id
 _symmetry_equiv_pos_as_xyz
  1  'x, y, z'
loop_
 _atom_site_type_symbol
 _atom_site_label
 _atom_site_symmetry_multiplicity
 _atom_site_fract_x
 _atom_site_fract_y
 _atom_site_fract_z
 _atom_site_occupancy
  Mo  Mo0  1  7.40871000  0.00147453  0.04563360  1
  Mo  Mo1  1  1.87730000  1.81940000  -0.05952510  1
  Mo  Mo2  1  1.93829000  7.24195000  1.92529000  1
  Mo  Mo3  1  7.28256000  1.75547000  1.75951000  1
  Mo  Mo4  1  3.48719000  7.42960000  3.73431000  1
  Mo  Mo5  1  5.47020000  1.67388000  -0.10949700  1
  Mo  Mo6  1  5.46833000  7.17057000  1.84382000  1
  Mo  Mo7  1  3.67374000  1.85792000  1.79128000  1
  Mo  Mo8  1  7.18793000  3.57708000  3.54760000  1
  Mo  Mo9  1  1.67109000  5.29655000  0.07632510  1
  Mo  Mo10  1  1.76996000  3.67272000  1.76145000  1
  Mo  Mo11  1  7.31732000  5.60315000  1.91315000  1
  Mo  Mo12  1  3.69585000  3.71008000  -0.00457676  1
  Mo  Mo13  1  5.54411000  5.55661000  3.70673000  1
  Mo  Mo14  1  5.46215000  3.72772000  1.65224000  1
  Mo  Mo15  1  3.56507000  5.42772000  1.87931000  1
