# generated using pymatgen
data_Mo
_symmetry_space_group_name_H-M   'P 1'
_cell_length_a   7.29789726
_cell_length_b   7.29789726
_cell_length_c   3.64894867
_cell_angle_alpha   90.00000000
_cell_angle_beta   90.00000000
_cell_angle_gamma   90.00000000
_symmetry_Int_Tables_number   1
_chemical_formula_structural   Mo
_chemical_formula_sum   Mo16
_cell_volume   194.34046797
_cell_formula_units_Z   16
loop_
 _symmetry_equiv_pos_site_id
 _symmetry_equiv_pos_as_xyz
  1  'x, y, z'
loop_
 _atom_site_type_symbol
 _atom_site_label
 _atom_site_symmetry_multiplicity
 _atom_site_fract_x
 _atom_site_fract_y
 _atom_site_fract_z
 _atom_site_occupancy
  Mo  Mo0  1  7.23176000  0.01973430  0.02802590  1
  Mo  Mo1  1  1.69896000  1.72277000  -0.00887793  1
  Mo  Mo2  1  1.64904000  7.12774000  1.88390000  1
  Mo  Mo3  1  7.18331000  1.91627000  1.85103000  1
  Mo  Mo4  1  3.55683000  7.23809000  3.58575000  1
  Mo  Mo5  1  5.49969000  1.85132000  0.11694400  1
  Mo  Mo6  1  5.55586000  7.24766000  1.79386000  1
  Mo  Mo7  1  3.62163000  1.74745000  1.82042000  1
  Mo  Mo8  1  7.47762000  3.75384000  3.59543000  1
  Mo  Mo9  1  1.88307000  5.62915000  -0.02755590  1
  Mo  Mo10  1  1.93533000  3.64840000  1.72903000  1
  Mo  Mo11  1  7.40977000  5.33618000  1.91605000  1
  Mo  Mo12  1  3.72208000  3.55769000  -0.04747480  1
  Mo  Mo13  1  5.29118000  5.36771000  3.59466000  1
  Mo  Mo14  1  5.43172000  3.75558000  1.82850000  1
  Mo  Mo15  1  3.67194000  5.60231000  1.80336000  1
