# generated using pymatgen
data_Mo
_symmetry_space_group_name_H-M   'P 1'
_cell_length_a   7.29789726
_cell_length_b   7.29789726
_cell_length_c   3.64894867
_cell_angle_alpha   90.00000000
_cell_angle_beta   90.00000000
_cell_angle_gamma   90.00000000
_symmetry_Int_Tables_number   1
_chemical_formula_structural   Mo
_chemical_formula_sum   Mo16
_cell_volume   194.34046797
_cell_formula_units_Z   16
loop_
 _symmetry_equiv_pos_site_id
 _symmetry_equiv_pos_as_xyz
  1  'x, y, z'
loop_
 _atom_site_type_symbol
 _atom_site_label
 _atom_site_symmetry_multiplicity
 _atom_site_fract_x
 _atom_site_fract_y
 _atom_site_fract_z
 _atom_site_occupancy
  Mo  Mo0  1  7.29881000  -0.12143400  -0.02587750  1
  Mo  Mo1  1  1.72337000  1.63756000  0.04293160  1
  Mo  Mo2  1  1.74828000  7.28238000  1.82328000  1
  Mo  Mo3  1  7.32353000  1.92119000  1.86858000  1
  Mo  Mo4  1  3.72448000  7.31251000  3.64042000  1
  Mo  Mo5  1  5.61680000  1.97403000  -0.04192340  1
  Mo  Mo6  1  5.57050000  7.32723000  1.82570000  1
  Mo  Mo7  1  3.68626000  1.57641000  1.80374000  1
  Mo  Mo8  1  7.32142000  3.75125000  3.57995000  1
  Mo  Mo9  1  1.84675000  5.43696000  0.06505840  1
  Mo  Mo10  1  1.94106000  3.65037000  1.87341000  1
  Mo  Mo11  1  7.25652000  5.41318000  1.66704000  1
  Mo  Mo12  1  3.53759000  3.78342000  -0.00041664  1
  Mo  Mo13  1  5.40940000  5.37912000  3.64230000  1
  Mo  Mo14  1  5.33286000  3.63233000  1.91744000  1
  Mo  Mo15  1  3.48216000  5.56539000  1.78141000  1
