# generated using pymatgen
data_Mo
_symmetry_space_group_name_H-M   'P 1'
_cell_length_a   7.29789726
_cell_length_b   7.29789726
_cell_length_c   3.64894867
_cell_angle_alpha   90.00000000
_cell_angle_beta   90.00000000
_cell_angle_gamma   90.00000000
_symmetry_Int_Tables_number   1
_chemical_formula_structural   Mo
_chemical_formula_sum   Mo16
_cell_volume   194.34046797
_cell_formula_units_Z   16
loop_
 _symmetry_equiv_pos_site_id
 _symmetry_equiv_pos_as_xyz
  1  'x, y, z'
loop_
 _atom_site_type_symbol
 _atom_site_label
 _atom_site_symmetry_multiplicity
 _atom_site_fract_x
 _atom_site_fract_y
 _atom_site_fract_z
 _atom_site_occupancy
  Mo  Mo0  1  7.29787000  0.06153470  0.00988208  1
  Mo  Mo1  1  1.89409000  1.71484000  0.06471250  1
  Mo  Mo2  1  1.89324000  7.32781000  1.95261000  1
  Mo  Mo3  1  7.37003000  1.71576000  1.98804000  1
  Mo  Mo4  1  3.73846000  7.14073000  3.64033000  1
  Mo  Mo5  1  5.39486000  2.01781000  -0.02540410  1
  Mo  Mo6  1  5.37566000  7.17225000  1.70307000  1
  Mo  Mo7  1  3.80531000  1.79932000  1.94511000  1
  Mo  Mo8  1  7.37368000  3.67424000  3.59400000  1
  Mo  Mo9  1  1.78748000  5.54675000  0.00714329  1
  Mo  Mo10  1  1.67155000  3.61011000  1.73416000  1
  Mo  Mo11  1  7.29578000  5.60338000  1.77258000  1
  Mo  Mo12  1  3.50137000  3.59562000  -0.05057080  1
  Mo  Mo13  1  5.48806000  5.44176000  3.55841000  1
  Mo  Mo14  1  5.46454000  3.69194000  1.84184000  1
  Mo  Mo15  1  3.46781000  5.40804000  1.72716000  1
