# generated using pymatgen
data_Mo
_symmetry_space_group_name_H-M   'P 1'
_cell_length_a   7.29789726
_cell_length_b   7.29789726
_cell_length_c   3.64894867
_cell_angle_alpha   90.00000000
_cell_angle_beta   90.00000000
_cell_angle_gamma   90.00000000
_symmetry_Int_Tables_number   1
_chemical_formula_structural   Mo
_chemical_formula_sum   Mo16
_cell_volume   194.34046797
_cell_formula_units_Z   16
loop_
 _symmetry_equiv_pos_site_id
 _symmetry_equiv_pos_as_xyz
  1  'x, y, z'
loop_
 _atom_site_type_symbol
 _atom_site_label
 _atom_site_symmetry_multiplicity
 _atom_site_fract_x
 _atom_site_fract_y
 _atom_site_fract_z
 _atom_site_occupancy
  Mo  Mo0  1  7.37730000  -0.11604000  0.03675260  1
  Mo  Mo1  1  1.85676000  1.87824000  0.01938520  1
  Mo  Mo2  1  1.94355000  7.16621000  1.83102000  1
  Mo  Mo3  1  7.36667000  1.60749000  1.85200000  1
  Mo  Mo4  1  3.54642000  7.15631000  3.69463000  1
  Mo  Mo5  1  5.49982000  1.70129000  0.01925250  1
  Mo  Mo6  1  5.35151000  7.51151000  1.87764000  1
  Mo  Mo7  1  3.51471000  1.94355000  1.91785000  1
  Mo  Mo8  1  7.26173000  3.61231000  3.64147000  1
  Mo  Mo9  1  1.81018000  5.42299000  -0.18649600  1
  Mo  Mo10  1  1.74308000  3.74519000  1.87200000  1
  Mo  Mo11  1  7.27647000  5.42999000  1.73347000  1
  Mo  Mo12  1  3.67438000  3.89251000  -0.03535300  1
  Mo  Mo13  1  5.53491000  5.47682000  3.67999000  1
  Mo  Mo14  1  5.43253000  3.60763000  1.78547000  1
  Mo  Mo15  1  3.62975000  5.48589000  1.72395000  1
