# generated using pymatgen
data_Mo
_symmetry_space_group_name_H-M   'P 1'
_cell_length_a   7.29789726
_cell_length_b   7.29789726
_cell_length_c   3.64894867
_cell_angle_alpha   90.00000000
_cell_angle_beta   90.00000000
_cell_angle_gamma   90.00000000
_symmetry_Int_Tables_number   1
_chemical_formula_structural   Mo
_chemical_formula_sum   Mo16
_cell_volume   194.34046797
_cell_formula_units_Z   16
loop_
 _symmetry_equiv_pos_site_id
 _symmetry_equiv_pos_as_xyz
  1  'x, y, z'
loop_
 _atom_site_type_symbol
 _atom_site_label
 _atom_site_symmetry_multiplicity
 _atom_site_fract_x
 _atom_site_fract_y
 _atom_site_fract_z
 _atom_site_occupancy
  Mo  Mo0  1  7.38879000  0.10104200  -0.03357000  1
  Mo  Mo1  1  1.89584000  1.86689000  -0.13697700  1
  Mo  Mo2  1  1.85868000  7.05202000  1.72002000  1
  Mo  Mo3  1  7.51084000  1.78791000  1.77857000  1
  Mo  Mo4  1  3.62551000  7.22905000  3.57952000  1
  Mo  Mo5  1  5.32913000  1.73279000  0.06909390  1
  Mo  Mo6  1  5.48105000  7.32955000  1.80950000  1
  Mo  Mo7  1  3.54059000  1.81729000  1.89083000  1
  Mo  Mo8  1  7.19801000  3.64418000  3.71524000  1
  Mo  Mo9  1  1.83247000  5.41274000  -0.02327120  1
  Mo  Mo10  1  1.72182000  3.96784000  1.83198000  1
  Mo  Mo11  1  7.24255000  5.57060000  1.66557000  1
  Mo  Mo12  1  3.62582000  3.62727000  0.07008430  1
  Mo  Mo13  1  5.40743000  5.51293000  3.70978000  1
  Mo  Mo14  1  5.48040000  3.47733000  1.88168000  1
  Mo  Mo15  1  3.68085000  5.39245000  1.93501000  1
