# generated using pymatgen
data_Mo
_symmetry_space_group_name_H-M   'P 1'
_cell_length_a   7.29789726
_cell_length_b   7.29789726
_cell_length_c   3.64894867
_cell_angle_alpha   90.00000000
_cell_angle_beta   90.00000000
_cell_angle_gamma   90.00000000
_symmetry_Int_Tables_number   1
_chemical_formula_structural   Mo
_chemical_formula_sum   Mo16
_cell_volume   194.34046797
_cell_formula_units_Z   16
loop_
 _symmetry_equiv_pos_site_id
 _symmetry_equiv_pos_as_xyz
  1  'x, y, z'
loop_
 _atom_site_type_symbol
 _atom_site_label
 _atom_site_symmetry_multiplicity
 _atom_site_fract_x
 _atom_site_fract_y
 _atom_site_fract_z
 _atom_site_occupancy
  Mo  Mo0  1  7.18283000  0.10403100  0.05239970  1
  Mo  Mo1  1  1.77596000  1.58714000  0.07851310  1
  Mo  Mo2  1  1.78986000  7.07675000  1.81296000  1
  Mo  Mo3  1  7.27859000  1.76336000  1.82908000  1
  Mo  Mo4  1  3.67175000  7.26791000  3.55807000  1
  Mo  Mo5  1  5.40697000  2.01415000  -0.08036620  1
  Mo  Mo6  1  5.44044000  7.42422000  1.79379000  1
  Mo  Mo7  1  3.51853000  1.78116000  1.75445000  1
  Mo  Mo8  1  7.39373000  3.71796000  3.66271000  1
  Mo  Mo9  1  1.82141000  5.35973000  -0.06874060  1
  Mo  Mo10  1  1.74466000  3.72415000  1.83926000  1
  Mo  Mo11  1  7.21268000  5.55437000  1.82163000  1
  Mo  Mo12  1  3.60872000  3.47745000  -0.03427900  1
  Mo  Mo13  1  5.61606000  5.65834000  3.76684000  1
  Mo  Mo14  1  5.51462000  3.61654000  1.87773000  1
  Mo  Mo15  1  3.84298000  5.39461000  1.79900000  1
