# generated using pymatgen
data_Mo
_symmetry_space_group_name_H-M   'P 1'
_cell_length_a   7.29789726
_cell_length_b   7.29789726
_cell_length_c   3.64894867
_cell_angle_alpha   90.00000000
_cell_angle_beta   90.00000000
_cell_angle_gamma   90.00000000
_symmetry_Int_Tables_number   1
_chemical_formula_structural   Mo
_chemical_formula_sum   Mo16
_cell_volume   194.34046797
_cell_formula_units_Z   16
loop_
 _symmetry_equiv_pos_site_id
 _symmetry_equiv_pos_as_xyz
  1  'x, y, z'
loop_
 _atom_site_type_symbol
 _atom_site_label
 _atom_site_symmetry_multiplicity
 _atom_site_fract_x
 _atom_site_fract_y
 _atom_site_fract_z
 _atom_site_occupancy
  Mo  Mo0  1  7.23517000  0.08739850  0.12438700  1
  Mo  Mo1  1  1.87909000  1.50310000  0.08399070  1
  Mo  Mo2  1  1.80732000  7.06064000  1.92633000  1
  Mo  Mo3  1  7.39056000  1.95750000  1.92632000  1
  Mo  Mo4  1  3.82062000  7.22795000  3.61735000  1
  Mo  Mo5  1  5.31312000  1.93208000  -0.16139600  1
  Mo  Mo6  1  5.53165000  7.34115000  1.84504000  1
  Mo  Mo7  1  3.57306000  1.79140000  1.83576000  1
  Mo  Mo8  1  7.31465000  3.60769000  3.63400000  1
  Mo  Mo9  1  1.84635000  5.53118000  -0.12095300  1
  Mo  Mo10  1  1.75976000  3.80163000  1.68544000  1
  Mo  Mo11  1  7.18759000  5.50384000  1.79481000  1
  Mo  Mo12  1  3.42512000  3.61863000  -0.07740290  1
  Mo  Mo13  1  5.50024000  5.38887000  3.73837000  1
  Mo  Mo14  1  5.42815000  3.65576000  1.79589000  1
  Mo  Mo15  1  3.80735000  5.51309000  1.81513000  1
