# generated using pymatgen
data_Mo
_symmetry_space_group_name_H-M   'P 1'
_cell_length_a   7.29789726
_cell_length_b   7.29789726
_cell_length_c   3.64894867
_cell_angle_alpha   90.00000000
_cell_angle_beta   90.00000000
_cell_angle_gamma   90.00000000
_symmetry_Int_Tables_number   1
_chemical_formula_structural   Mo
_chemical_formula_sum   Mo16
_cell_volume   194.34046797
_cell_formula_units_Z   16
loop_
 _symmetry_equiv_pos_site_id
 _symmetry_equiv_pos_as_xyz
  1  'x, y, z'
loop_
 _atom_site_type_symbol
 _atom_site_label
 _atom_site_symmetry_multiplicity
 _atom_site_fract_x
 _atom_site_fract_y
 _atom_site_fract_z
 _atom_site_occupancy
  Mo  Mo0  1  7.12602000  -0.02157350  -0.03678480  1
  Mo  Mo1  1  1.95297000  1.78471000  -0.06470990  1
  Mo  Mo2  1  1.71070000  7.40620000  1.90369000  1
  Mo  Mo3  1  7.30956000  1.83059000  1.83535000  1
  Mo  Mo4  1  3.58338000  7.15533000  3.75464000  1
  Mo  Mo5  1  5.30099000  1.77766000  0.02853020  1
  Mo  Mo6  1  5.35138000  7.13806000  1.75276000  1
  Mo  Mo7  1  3.61191000  1.94174000  1.73052000  1
  Mo  Mo8  1  7.38473000  3.66274000  3.66846000  1
  Mo  Mo9  1  1.87196000  5.58008000  0.07967840  1
  Mo  Mo10  1  1.78857000  3.55886000  1.84893000  1
  Mo  Mo11  1  7.48563000  5.41233000  1.78182000  1
  Mo  Mo12  1  3.70846000  3.79399000  -0.06870050  1
  Mo  Mo13  1  5.53657000  5.49852000  3.60127000  1
  Mo  Mo14  1  5.47294000  3.63876000  1.76264000  1
  Mo  Mo15  1  3.62404000  5.36389000  1.88496000  1
