# generated using pymatgen
data_Mo
_symmetry_space_group_name_H-M   'P 1'
_cell_length_a   7.29789726
_cell_length_b   7.29789726
_cell_length_c   3.64894867
_cell_angle_alpha   90.00000000
_cell_angle_beta   90.00000000
_cell_angle_gamma   90.00000000
_symmetry_Int_Tables_number   1
_chemical_formula_structural   Mo
_chemical_formula_sum   Mo16
_cell_volume   194.34046797
_cell_formula_units_Z   16
loop_
 _symmetry_equiv_pos_site_id
 _symmetry_equiv_pos_as_xyz
  1  'x, y, z'
loop_
 _atom_site_type_symbol
 _atom_site_label
 _atom_site_symmetry_multiplicity
 _atom_site_fract_x
 _atom_site_fract_y
 _atom_site_fract_z
 _atom_site_occupancy
  Mo  Mo0  1  7.36758000  0.02207550  0.02764630  1
  Mo  Mo1  1  1.90784000  1.75191000  -0.01147880  1
  Mo  Mo2  1  1.71385000  7.46456000  1.94205000  1
  Mo  Mo3  1  7.14218000  1.82298000  1.80233000  1
  Mo  Mo4  1  3.69340000  7.17558000  3.51722000  1
  Mo  Mo5  1  5.28403000  1.85239000  0.04897030  1
  Mo  Mo6  1  5.55455000  7.37035000  1.75768000  1
  Mo  Mo7  1  3.74844000  1.72911000  1.81615000  1
  Mo  Mo8  1  7.34833000  3.51672000  3.67605000  1
  Mo  Mo9  1  1.78341000  5.52109000  0.02808370  1
  Mo  Mo10  1  1.81118000  3.47038000  1.86353000  1
  Mo  Mo11  1  7.29939000  5.34580000  1.80729000  1
  Mo  Mo12  1  3.63764000  3.87644000  0.03549890  1
  Mo  Mo13  1  5.48139000  5.49584000  3.50760000  1
  Mo  Mo14  1  5.41110000  3.69343000  1.80495000  1
  Mo  Mo15  1  3.63548000  5.41325000  1.83946000  1
