# generated using pymatgen
data_Mo
_symmetry_space_group_name_H-M   'P 1'
_cell_length_a   7.29789726
_cell_length_b   7.29789726
_cell_length_c   3.64894867
_cell_angle_alpha   90.00000000
_cell_angle_beta   90.00000000
_cell_angle_gamma   90.00000000
_symmetry_Int_Tables_number   1
_chemical_formula_structural   Mo
_chemical_formula_sum   Mo16
_cell_volume   194.34046797
_cell_formula_units_Z   16
loop_
 _symmetry_equiv_pos_site_id
 _symmetry_equiv_pos_as_xyz
  1  'x, y, z'
loop_
 _atom_site_type_symbol
 _atom_site_label
 _atom_site_symmetry_multiplicity
 _atom_site_fract_x
 _atom_site_fract_y
 _atom_site_fract_z
 _atom_site_occupancy
  Mo  Mo0  1  7.26615000  -0.00525086  0.01975020  1
  Mo  Mo1  1  1.91174000  1.82979000  -0.13987700  1
  Mo  Mo2  1  1.74054000  7.41693000  1.86493000  1
  Mo  Mo3  1  7.36140000  1.80498000  1.74477000  1
  Mo  Mo4  1  3.61377000  7.14073000  3.66606000  1
  Mo  Mo5  1  5.29507000  1.73394000  -0.16007200  1
  Mo  Mo6  1  5.41640000  7.24557000  1.83950000  1
  Mo  Mo7  1  3.64132000  1.83902000  1.83035000  1
  Mo  Mo8  1  7.34448000  3.60906000  3.60828000  1
  Mo  Mo9  1  1.85408000  5.50318000  0.08771930  1
  Mo  Mo10  1  1.77643000  3.55277000  1.78087000  1
  Mo  Mo11  1  7.31717000  5.50085000  1.94429000  1
  Mo  Mo12  1  3.75217000  3.64624000  -0.02648060  1
  Mo  Mo13  1  5.47627000  5.48713000  3.75657000  1
  Mo  Mo14  1  5.42396000  3.69963000  1.81433000  1
  Mo  Mo15  1  3.62883000  5.51732000  1.83206000  1
