# generated using pymatgen
data_Mo
_symmetry_space_group_name_H-M   'P 1'
_cell_length_a   7.29789726
_cell_length_b   7.29789726
_cell_length_c   3.64894867
_cell_angle_alpha   90.00000000
_cell_angle_beta   90.00000000
_cell_angle_gamma   90.00000000
_symmetry_Int_Tables_number   1
_chemical_formula_structural   Mo
_chemical_formula_sum   Mo16
_cell_volume   194.34046797
_cell_formula_units_Z   16
loop_
 _symmetry_equiv_pos_site_id
 _symmetry_equiv_pos_as_xyz
  1  'x, y, z'
loop_
 _atom_site_type_symbol
 _atom_site_label
 _atom_site_symmetry_multiplicity
 _atom_site_fract_x
 _atom_site_fract_y
 _atom_site_fract_z
 _atom_site_occupancy
  Mo  Mo0  1  7.18842000  0.00603803  -0.02820580  1
  Mo  Mo1  1  1.70671000  1.74969000  0.09024590  1
  Mo  Mo2  1  1.95818000  7.28756000  1.88837000  1
  Mo  Mo3  1  7.36754000  1.81032000  1.79766000  1
  Mo  Mo4  1  3.65617000  7.21313000  3.63132000  1
  Mo  Mo5  1  5.43538000  1.81223000  0.07317290  1
  Mo  Mo6  1  5.42625000  7.26488000  1.84189000  1
  Mo  Mo7  1  3.58728000  1.86663000  1.89035000  1
  Mo  Mo8  1  7.37448000  3.69409000  3.43402000  1
  Mo  Mo9  1  1.75055000  5.57936000  -0.08157500  1
  Mo  Mo10  1  1.91650000  3.81059000  1.83318000  1
  Mo  Mo11  1  7.17293000  5.38039000  1.73812000  1
  Mo  Mo12  1  3.57317000  3.59520000  0.05062840  1
  Mo  Mo13  1  5.50828000  5.56327000  3.68941000  1
  Mo  Mo14  1  5.46012000  3.49782000  1.81457000  1
  Mo  Mo15  1  3.73784000  5.39070000  1.79989000  1
