# generated using pymatgen
data_Mo
_symmetry_space_group_name_H-M   'P 1'
_cell_length_a   7.29789726
_cell_length_b   7.29789726
_cell_length_c   3.64894867
_cell_angle_alpha   90.00000000
_cell_angle_beta   90.00000000
_cell_angle_gamma   90.00000000
_symmetry_Int_Tables_number   1
_chemical_formula_structural   Mo
_chemical_formula_sum   Mo16
_cell_volume   194.34046797
_cell_formula_units_Z   16
loop_
 _symmetry_equiv_pos_site_id
 _symmetry_equiv_pos_as_xyz
  1  'x, y, z'
loop_
 _atom_site_type_symbol
 _atom_site_label
 _atom_site_symmetry_multiplicity
 _atom_site_fract_x
 _atom_site_fract_y
 _atom_site_fract_z
 _atom_site_occupancy
  Mo  Mo0  1  7.37668000  0.13456600  -0.12005500  1
  Mo  Mo1  1  1.84279000  1.83220000  0.05196050  1
  Mo  Mo2  1  1.77497000  7.29853000  1.86803000  1
  Mo  Mo3  1  7.30340000  1.93147000  1.71638000  1
  Mo  Mo4  1  3.62847000  7.33853000  3.69343000  1
  Mo  Mo5  1  5.42887000  1.77456000  -0.14253900  1
  Mo  Mo6  1  5.54024000  7.32966000  1.84796000  1
  Mo  Mo7  1  3.68082000  1.70743000  1.74808000  1
  Mo  Mo8  1  7.29670000  3.61314000  3.58545000  1
  Mo  Mo9  1  1.77752000  5.54239000  -0.02176330  1
  Mo  Mo10  1  1.84936000  3.68416000  1.98501000  1
  Mo  Mo11  1  7.10130000  5.41572000  1.82021000  1
  Mo  Mo12  1  3.58866000  3.57766000  0.05553910  1
  Mo  Mo13  1  5.42648000  5.30942000  3.72036000  1
  Mo  Mo14  1  5.43810000  3.57424000  1.78028000  1
  Mo  Mo15  1  3.76544000  5.45820000  1.87471000  1
