# generated using pymatgen
data_Mo
_symmetry_space_group_name_H-M   'P 1'
_cell_length_a   7.29789726
_cell_length_b   7.29789726
_cell_length_c   3.64894867
_cell_angle_alpha   90.00000000
_cell_angle_beta   90.00000000
_cell_angle_gamma   90.00000000
_symmetry_Int_Tables_number   1
_chemical_formula_structural   Mo
_chemical_formula_sum   Mo16
_cell_volume   194.34046797
_cell_formula_units_Z   16
loop_
 _symmetry_equiv_pos_site_id
 _symmetry_equiv_pos_as_xyz
  1  'x, y, z'
loop_
 _atom_site_type_symbol
 _atom_site_label
 _atom_site_symmetry_multiplicity
 _atom_site_fract_x
 _atom_site_fract_y
 _atom_site_fract_z
 _atom_site_occupancy
  Mo  Mo0  1  7.23256000  -0.02671550  0.01029820  1
  Mo  Mo1  1  1.89933000  1.73159000  0.08114000  1
  Mo  Mo2  1  1.94925000  7.24801000  1.86543000  1
  Mo  Mo3  1  7.31699000  1.74179000  1.87709000  1
  Mo  Mo4  1  3.82887000  7.25793000  3.77970000  1
  Mo  Mo5  1  5.43156000  1.88601000  -0.12611700  1
  Mo  Mo6  1  5.50162000  7.33305000  1.82903000  1
  Mo  Mo7  1  3.39494000  1.75636000  1.82703000  1
  Mo  Mo8  1  7.30632000  3.67670000  3.63045000  1
  Mo  Mo9  1  1.77645000  5.64718000  0.05270260  1
  Mo  Mo10  1  1.83544000  3.81333000  1.82937000  1
  Mo  Mo11  1  7.23058000  5.31725000  1.78889000  1
  Mo  Mo12  1  3.55516000  3.88222000  -0.08828000  1
  Mo  Mo13  1  5.59014000  5.31309000  3.60774000  1
  Mo  Mo14  1  5.28262000  3.39991000  1.72213000  1
  Mo  Mo15  1  3.68797000  5.54419000  1.77646000  1
