# generated using pymatgen
data_Mo
_symmetry_space_group_name_H-M   'P 1'
_cell_length_a   7.29789726
_cell_length_b   7.29789726
_cell_length_c   3.64894867
_cell_angle_alpha   90.00000000
_cell_angle_beta   90.00000000
_cell_angle_gamma   90.00000000
_symmetry_Int_Tables_number   1
_chemical_formula_structural   Mo
_chemical_formula_sum   Mo16
_cell_volume   194.34046797
_cell_formula_units_Z   16
loop_
 _symmetry_equiv_pos_site_id
 _symmetry_equiv_pos_as_xyz
  1  'x, y, z'
loop_
 _atom_site_type_symbol
 _atom_site_label
 _atom_site_symmetry_multiplicity
 _atom_site_fract_x
 _atom_site_fract_y
 _atom_site_fract_z
 _atom_site_occupancy
  Mo  Mo0  1  7.20065000  0.00808386  -0.15464500  1
  Mo  Mo1  1  1.70957000  1.55935000  -0.08428090  1
  Mo  Mo2  1  1.89544000  7.23049000  1.71907000  1
  Mo  Mo3  1  7.31905000  1.89490000  1.73638000  1
  Mo  Mo4  1  3.80368000  7.29832000  3.69695000  1
  Mo  Mo5  1  5.49873000  1.86621000  -0.00831307  1
  Mo  Mo6  1  5.44906000  7.40293000  1.86900000  1
  Mo  Mo7  1  3.51452000  1.79469000  1.86091000  1
  Mo  Mo8  1  7.34033000  3.56697000  3.68042000  1
  Mo  Mo9  1  1.74187000  5.50294000  0.05845620  1
  Mo  Mo10  1  1.85396000  3.72850000  1.82806000  1
  Mo  Mo11  1  7.24379000  5.33671000  1.81771000  1
  Mo  Mo12  1  3.68244000  3.76049000  -0.05035970  1
  Mo  Mo13  1  5.41707000  5.49968000  3.66686000  1
  Mo  Mo14  1  5.46338000  3.63439000  1.94525000  1
  Mo  Mo15  1  3.68626000  5.43724000  1.88158000  1
