# generated using pymatgen
data_Mo
_symmetry_space_group_name_H-M   'P 1'
_cell_length_a   7.29789726
_cell_length_b   7.29789726
_cell_length_c   3.64894867
_cell_angle_alpha   90.00000000
_cell_angle_beta   90.00000000
_cell_angle_gamma   90.00000000
_symmetry_Int_Tables_number   1
_chemical_formula_structural   Mo
_chemical_formula_sum   Mo16
_cell_volume   194.34046797
_cell_formula_units_Z   16
loop_
 _symmetry_equiv_pos_site_id
 _symmetry_equiv_pos_as_xyz
  1  'x, y, z'
loop_
 _atom_site_type_symbol
 _atom_site_label
 _atom_site_symmetry_multiplicity
 _atom_site_fract_x
 _atom_site_fract_y
 _atom_site_fract_z
 _atom_site_occupancy
  Mo  Mo0  1  7.26869000  0.07131570  -0.02506690  1
  Mo  Mo1  1  2.02072000  1.78846000  0.14059900  1
  Mo  Mo2  1  1.89806000  7.40926000  1.74478000  1
  Mo  Mo3  1  7.21392000  1.96522000  1.77294000  1
  Mo  Mo4  1  3.68127000  7.02039000  3.57306000  1
  Mo  Mo5  1  5.29900000  1.69433000  -0.04206380  1
  Mo  Mo6  1  5.64244000  7.16797000  1.76024000  1
  Mo  Mo7  1  3.69241000  1.83413000  1.88547000  1
  Mo  Mo8  1  7.26041000  3.75349000  3.57505000  1
  Mo  Mo9  1  1.77963000  5.45038000  -0.04916960  1
  Mo  Mo10  1  1.77664000  3.51471000  1.82929000  1
  Mo  Mo11  1  7.33125000  5.43464000  1.92257000  1
  Mo  Mo12  1  3.54792000  3.70066000  0.11955000  1
  Mo  Mo13  1  5.52671000  5.59309000  3.69258000  1
  Mo  Mo14  1  5.42425000  3.69171000  1.85204000  1
  Mo  Mo15  1  3.45648000  5.43214000  1.71120000  1
