# generated using pymatgen
data_Mo
_symmetry_space_group_name_H-M   'P 1'
_cell_length_a   7.29789726
_cell_length_b   7.29789726
_cell_length_c   3.64894867
_cell_angle_alpha   90.00000000
_cell_angle_beta   90.00000000
_cell_angle_gamma   90.00000000
_symmetry_Int_Tables_number   1
_chemical_formula_structural   Mo
_chemical_formula_sum   Mo16
_cell_volume   194.34046797
_cell_formula_units_Z   16
loop_
 _symmetry_equiv_pos_site_id
 _symmetry_equiv_pos_as_xyz
  1  'x, y, z'
loop_
 _atom_site_type_symbol
 _atom_site_label
 _atom_site_symmetry_multiplicity
 _atom_site_fract_x
 _atom_site_fract_y
 _atom_site_fract_z
 _atom_site_occupancy
  Mo  Mo0  1  7.27018000  -0.06351760  -0.10061700  1
  Mo  Mo1  1  1.80454000  1.72445000  0.05419040  1
  Mo  Mo2  1  1.85238000  7.43026000  1.87240000  1
  Mo  Mo3  1  7.32826000  1.82400000  1.89952000  1
  Mo  Mo4  1  3.60707000  7.24084000  3.61587000  1
  Mo  Mo5  1  5.37608000  1.73871000  0.04757540  1
  Mo  Mo6  1  5.45210000  7.38099000  1.75296000  1
  Mo  Mo7  1  3.75573000  1.86422000  1.94200000  1
  Mo  Mo8  1  7.20290000  3.51961000  3.68823000  1
  Mo  Mo9  1  1.83801000  5.46039000  -0.07150840  1
  Mo  Mo10  1  1.77290000  3.45961000  1.81042000  1
  Mo  Mo11  1  7.22408000  5.49609000  1.71341000  1
  Mo  Mo12  1  3.67430000  3.83993000  0.06301530  1
  Mo  Mo13  1  5.54872000  5.55620000  3.64628000  1
  Mo  Mo14  1  5.38246000  3.59089000  1.78297000  1
  Mo  Mo15  1  3.73009000  5.45924000  1.74633000  1
