# generated using pymatgen
data_Mo
_symmetry_space_group_name_H-M   'P 1'
_cell_length_a   7.29789726
_cell_length_b   7.29789726
_cell_length_c   3.64894867
_cell_angle_alpha   90.00000000
_cell_angle_beta   90.00000000
_cell_angle_gamma   90.00000000
_symmetry_Int_Tables_number   1
_chemical_formula_structural   Mo
_chemical_formula_sum   Mo16
_cell_volume   194.34046797
_cell_formula_units_Z   16
loop_
 _symmetry_equiv_pos_site_id
 _symmetry_equiv_pos_as_xyz
  1  'x, y, z'
loop_
 _atom_site_type_symbol
 _atom_site_label
 _atom_site_symmetry_multiplicity
 _atom_site_fract_x
 _atom_site_fract_y
 _atom_site_fract_z
 _atom_site_occupancy
  Mo  Mo0  1  7.26651000  -0.11282000  0.02603480  1
  Mo  Mo1  1  2.00391000  1.76240000  -0.07631220  1
  Mo  Mo2  1  1.75188000  7.45452000  1.72134000  1
  Mo  Mo3  1  7.10178000  1.79723000  1.88395000  1
  Mo  Mo4  1  3.55607000  7.20619000  3.71436000  1
  Mo  Mo5  1  5.22695000  1.72560000  0.00788335  1
  Mo  Mo6  1  5.51915000  7.32077000  1.90585000  1
  Mo  Mo7  1  3.80795000  1.93195000  1.80416000  1
  Mo  Mo8  1  7.37170000  3.56241000  3.71691000  1
  Mo  Mo9  1  1.73076000  5.37432000  -0.02651740  1
  Mo  Mo10  1  1.86445000  3.58347000  1.67268000  1
  Mo  Mo11  1  7.40820000  5.30428000  1.87649000  1
  Mo  Mo12  1  3.67673000  3.80419000  -0.08945990  1
  Mo  Mo13  1  5.44183000  5.53877000  3.66331000  1
  Mo  Mo14  1  5.54014000  3.72987000  1.77161000  1
  Mo  Mo15  1  3.55179000  5.53876000  1.89076000  1
