# generated using pymatgen
data_Mo
_symmetry_space_group_name_H-M   'P 1'
_cell_length_a   7.29789726
_cell_length_b   7.29789726
_cell_length_c   3.64894867
_cell_angle_alpha   90.00000000
_cell_angle_beta   90.00000000
_cell_angle_gamma   90.00000000
_symmetry_Int_Tables_number   1
_chemical_formula_structural   Mo
_chemical_formula_sum   Mo16
_cell_volume   194.34046797
_cell_formula_units_Z   16
loop_
 _symmetry_equiv_pos_site_id
 _symmetry_equiv_pos_as_xyz
  1  'x, y, z'
loop_
 _atom_site_type_symbol
 _atom_site_label
 _atom_site_symmetry_multiplicity
 _atom_site_fract_x
 _atom_site_fract_y
 _atom_site_fract_z
 _atom_site_occupancy
  Mo  Mo0  1  7.40639000  0.04821890  0.05466420  1
  Mo  Mo1  1  1.72933000  1.72492000  -0.19919600  1
  Mo  Mo2  1  1.77131000  7.14644000  1.86197000  1
  Mo  Mo3  1  7.27503000  1.88253000  1.87008000  1
  Mo  Mo4  1  3.62783000  7.29058000  3.75076000  1
  Mo  Mo5  1  5.51270000  1.85965000  -0.03186830  1
  Mo  Mo6  1  5.39799000  7.43206000  1.84197000  1
  Mo  Mo7  1  3.55111000  1.78545000  1.79775000  1
  Mo  Mo8  1  7.32486000  3.68008000  3.74016000  1
  Mo  Mo9  1  2.05823000  5.43183000  -0.04748340  1
  Mo  Mo10  1  1.75322000  3.54597000  1.83056000  1
  Mo  Mo11  1  7.14738000  5.66465000  1.88622000  1
  Mo  Mo12  1  3.55680000  3.50401000  -0.11939800  1
  Mo  Mo13  1  5.42839000  5.44836000  3.68814000  1
  Mo  Mo14  1  5.50111000  3.58272000  1.77956000  1
  Mo  Mo15  1  3.77813000  5.49441000  1.75916000  1
