# generated using pymatgen
data_Mo
_symmetry_space_group_name_H-M   'P 1'
_cell_length_a   7.29789726
_cell_length_b   7.29789726
_cell_length_c   3.64894867
_cell_angle_alpha   90.00000000
_cell_angle_beta   90.00000000
_cell_angle_gamma   90.00000000
_symmetry_Int_Tables_number   1
_chemical_formula_structural   Mo
_chemical_formula_sum   Mo16
_cell_volume   194.34046797
_cell_formula_units_Z   16
loop_
 _symmetry_equiv_pos_site_id
 _symmetry_equiv_pos_as_xyz
  1  'x, y, z'
loop_
 _atom_site_type_symbol
 _atom_site_label
 _atom_site_symmetry_multiplicity
 _atom_site_fract_x
 _atom_site_fract_y
 _atom_site_fract_z
 _atom_site_occupancy
  Mo  Mo0  1  7.34065000  0.02604550  -0.14539500  1
  Mo  Mo1  1  1.88675000  1.93197000  -0.04303350  1
  Mo  Mo2  1  1.77528000  7.35187000  1.71283000  1
  Mo  Mo3  1  7.15772000  1.83748000  1.88467000  1
  Mo  Mo4  1  3.52163000  7.41058000  3.61903000  1
  Mo  Mo5  1  5.43756000  1.67747000  0.05887960  1
  Mo  Mo6  1  5.52917000  7.22014000  1.91819000  1
  Mo  Mo7  1  3.69521000  1.72101000  1.79612000  1
  Mo  Mo8  1  7.29833000  3.46597000  3.66663000  1
  Mo  Mo9  1  1.79995000  5.45872000  0.10287000  1
  Mo  Mo10  1  1.94853000  3.54258000  1.85593000  1
  Mo  Mo11  1  7.24584000  5.42591000  1.82972000  1
  Mo  Mo12  1  3.74251000  3.63562000  0.00246119  1
  Mo  Mo13  1  5.52858000  5.42717000  3.58720000  1
  Mo  Mo14  1  5.31238000  3.77004000  1.85737000  1
  Mo  Mo15  1  3.59969000  5.61932000  1.75959000  1
