# generated using pymatgen
data_Mo
_symmetry_space_group_name_H-M   'P 1'
_cell_length_a   7.29789726
_cell_length_b   7.29789726
_cell_length_c   3.64894867
_cell_angle_alpha   90.00000000
_cell_angle_beta   90.00000000
_cell_angle_gamma   90.00000000
_symmetry_Int_Tables_number   1
_chemical_formula_structural   Mo
_chemical_formula_sum   Mo16
_cell_volume   194.34046797
_cell_formula_units_Z   16
loop_
 _symmetry_equiv_pos_site_id
 _symmetry_equiv_pos_as_xyz
  1  'x, y, z'
loop_
 _atom_site_type_symbol
 _atom_site_label
 _atom_site_symmetry_multiplicity
 _atom_site_fract_x
 _atom_site_fract_y
 _atom_site_fract_z
 _atom_site_occupancy
  Mo  Mo0  1  7.29197000  -0.01624580  -0.04802940  1
  Mo  Mo1  1  2.04065000  1.78651000  -0.11132900  1
  Mo  Mo2  1  1.94310000  7.28087000  1.82792000  1
  Mo  Mo3  1  7.39988000  1.72422000  1.89109000  1
  Mo  Mo4  1  3.66425000  7.24768000  3.62900000  1
  Mo  Mo5  1  5.39016000  1.69501000  0.06108280  1
  Mo  Mo6  1  5.46996000  7.30441000  1.92728000  1
  Mo  Mo7  1  3.48919000  1.97469000  1.81209000  1
  Mo  Mo8  1  7.18536000  3.60442000  3.67803000  1
  Mo  Mo9  1  1.84032000  5.51065000  0.06143140  1
  Mo  Mo10  1  1.69033000  3.84306000  1.79629000  1
  Mo  Mo11  1  7.10221000  5.55819000  1.83510000  1
  Mo  Mo12  1  3.66284000  3.69407000  -0.09680570  1
  Mo  Mo13  1  5.43774000  5.40184000  3.61088000  1
  Mo  Mo14  1  5.46420000  3.39941000  1.75750000  1
  Mo  Mo15  1  3.74764000  5.51310000  1.83151000  1
