# generated using pymatgen
data_Mo
_symmetry_space_group_name_H-M   'P 1'
_cell_length_a   7.29789726
_cell_length_b   7.29789726
_cell_length_c   3.64894867
_cell_angle_alpha   90.00000000
_cell_angle_beta   90.00000000
_cell_angle_gamma   90.00000000
_symmetry_Int_Tables_number   1
_chemical_formula_structural   Mo
_chemical_formula_sum   Mo16
_cell_volume   194.34046797
_cell_formula_units_Z   16
loop_
 _symmetry_equiv_pos_site_id
 _symmetry_equiv_pos_as_xyz
  1  'x, y, z'
loop_
 _atom_site_type_symbol
 _atom_site_label
 _atom_site_symmetry_multiplicity
 _atom_site_fract_x
 _atom_site_fract_y
 _atom_site_fract_z
 _atom_site_occupancy
  Mo  Mo0  1  7.19328000  -0.08160780  0.05432000  1
  Mo  Mo1  1  1.82481000  1.83160000  0.06731940  1
  Mo  Mo2  1  1.76856000  7.26144000  1.92942000  1
  Mo  Mo3  1  7.39064000  1.96567000  1.80346000  1
  Mo  Mo4  1  3.58249000  7.29956000  3.69525000  1
  Mo  Mo5  1  5.60164000  1.86525000  0.01041450  1
  Mo  Mo6  1  5.53713000  7.15585000  1.82763000  1
  Mo  Mo7  1  3.80371000  1.71872000  1.79072000  1
  Mo  Mo8  1  7.31714000  3.70388000  3.54147000  1
  Mo  Mo9  1  1.81954000  5.50169000  0.05977410  1
  Mo  Mo10  1  1.90889000  3.71359000  1.77728000  1
  Mo  Mo11  1  7.17087000  5.38427000  1.72806000  1
  Mo  Mo12  1  3.46942000  3.56228000  -0.02403890  1
  Mo  Mo13  1  5.36950000  5.39762000  3.62185000  1
  Mo  Mo14  1  5.41497000  3.66273000  1.82937000  1
  Mo  Mo15  1  3.64720000  5.57936000  1.75075000  1
