# generated using pymatgen
data_Mo
_symmetry_space_group_name_H-M   'P 1'
_cell_length_a   7.29789726
_cell_length_b   7.29789726
_cell_length_c   3.64894867
_cell_angle_alpha   90.00000000
_cell_angle_beta   90.00000000
_cell_angle_gamma   90.00000000
_symmetry_Int_Tables_number   1
_chemical_formula_structural   Mo
_chemical_formula_sum   Mo16
_cell_volume   194.34046797
_cell_formula_units_Z   16
loop_
 _symmetry_equiv_pos_site_id
 _symmetry_equiv_pos_as_xyz
  1  'x, y, z'
loop_
 _atom_site_type_symbol
 _atom_site_label
 _atom_site_symmetry_multiplicity
 _atom_site_fract_x
 _atom_site_fract_y
 _atom_site_fract_z
 _atom_site_occupancy
  Mo  Mo0  1  7.28354000  0.00146774  0.16845800  1
  Mo  Mo1  1  1.79925000  1.69984000  0.04207920  1
  Mo  Mo2  1  1.86482000  7.32157000  1.81834000  1
  Mo  Mo3  1  7.32935000  1.92222000  1.89485000  1
  Mo  Mo4  1  3.82184000  7.27910000  3.60905000  1
  Mo  Mo5  1  5.60677000  1.75333000  -0.07449250  1
  Mo  Mo6  1  5.42450000  7.37372000  1.83945000  1
  Mo  Mo7  1  3.55965000  1.75292000  1.68386000  1
  Mo  Mo8  1  7.25234000  3.54641000  3.61383000  1
  Mo  Mo9  1  1.75525000  5.71528000  -0.03259590  1
  Mo  Mo10  1  1.77398000  3.73004000  1.77014000  1
  Mo  Mo11  1  7.26404000  5.44918000  1.91624000  1
  Mo  Mo12  1  3.66608000  3.68904000  0.05421630  1
  Mo  Mo13  1  5.40557000  5.26386000  3.58564000  1
  Mo  Mo14  1  5.45730000  3.55736000  1.81641000  1
  Mo  Mo15  1  3.55550000  5.46655000  1.75759000  1
