# generated using pymatgen
data_Mo
_symmetry_space_group_name_H-M   'P 1'
_cell_length_a   7.29789726
_cell_length_b   7.29789726
_cell_length_c   3.64894867
_cell_angle_alpha   90.00000000
_cell_angle_beta   90.00000000
_cell_angle_gamma   90.00000000
_symmetry_Int_Tables_number   1
_chemical_formula_structural   Mo
_chemical_formula_sum   Mo16
_cell_volume   194.34046797
_cell_formula_units_Z   16
loop_
 _symmetry_equiv_pos_site_id
 _symmetry_equiv_pos_as_xyz
  1  'x, y, z'
loop_
 _atom_site_type_symbol
 _atom_site_label
 _atom_site_symmetry_multiplicity
 _atom_site_fract_x
 _atom_site_fract_y
 _atom_site_fract_z
 _atom_site_occupancy
  Mo  Mo0  1  7.29134000  -0.08657630  -0.04541600  1
  Mo  Mo1  1  1.78451000  1.83644000  -0.02655430  1
  Mo  Mo2  1  1.85413000  7.36769000  1.74169000  1
  Mo  Mo3  1  7.19745000  1.65767000  1.75660000  1
  Mo  Mo4  1  3.67940000  7.30682000  3.70696000  1
  Mo  Mo5  1  5.30300000  1.85713000  -0.11176700  1
  Mo  Mo6  1  5.36853000  7.09026000  1.85914000  1
  Mo  Mo7  1  3.67386000  1.93222000  1.88670000  1
  Mo  Mo8  1  7.42406000  3.50794000  3.62431000  1
  Mo  Mo9  1  1.80877000  5.47103000  0.06675640  1
  Mo  Mo10  1  1.95622000  3.54896000  1.85757000  1
  Mo  Mo11  1  7.28926000  5.52678000  1.83967000  1
  Mo  Mo12  1  3.59279000  3.74025000  -0.00165166  1
  Mo  Mo13  1  5.56122000  5.34708000  3.63352000  1
  Mo  Mo14  1  5.48942000  3.79496000  1.75198000  1
  Mo  Mo15  1  3.54583000  5.62325000  1.92355000  1
