# generated using pymatgen
data_Mo
_symmetry_space_group_name_H-M   'P 1'
_cell_length_a   7.29789726
_cell_length_b   7.29789726
_cell_length_c   3.64894867
_cell_angle_alpha   90.00000000
_cell_angle_beta   90.00000000
_cell_angle_gamma   90.00000000
_symmetry_Int_Tables_number   1
_chemical_formula_structural   Mo
_chemical_formula_sum   Mo16
_cell_volume   194.34046797
_cell_formula_units_Z   16
loop_
 _symmetry_equiv_pos_site_id
 _symmetry_equiv_pos_as_xyz
  1  'x, y, z'
loop_
 _atom_site_type_symbol
 _atom_site_label
 _atom_site_symmetry_multiplicity
 _atom_site_fract_x
 _atom_site_fract_y
 _atom_site_fract_z
 _atom_site_occupancy
  Mo  Mo0  1  7.33440000  -0.07816120  -0.08539240  1
  Mo  Mo1  1  1.78305000  1.79855000  0.05206550  1
  Mo  Mo2  1  1.78869000  7.26739000  1.78884000  1
  Mo  Mo3  1  7.22196000  1.85342000  1.87807000  1
  Mo  Mo4  1  3.61561000  7.38328000  3.67798000  1
  Mo  Mo5  1  5.56799000  1.75302000  0.02960960  1
  Mo  Mo6  1  5.49145000  7.46481000  1.83616000  1
  Mo  Mo7  1  3.63038000  1.63721000  1.87685000  1
  Mo  Mo8  1  7.44503000  3.65219000  3.68666000  1
  Mo  Mo9  1  1.78795000  5.51705000  -0.01534510  1
  Mo  Mo10  1  1.80587000  3.71022000  1.93029000  1
  Mo  Mo11  1  7.19834000  5.52555000  1.75205000  1
  Mo  Mo12  1  3.64859000  3.52921000  -0.08621790  1
  Mo  Mo13  1  5.30585000  5.54474000  3.54272000  1
  Mo  Mo14  1  5.42138000  3.53968000  1.78485000  1
  Mo  Mo15  1  3.77327000  5.42373000  1.81386000  1
